@<TRIPOS>MOLECULE
09L
   55    59     1     0     0
SMALL
bcc


@<TRIPOS>ATOM
      1 C           7.8280    2.7140   -0.2950 C.x       1 LIG     -0.110400
      2 C1          6.9130    2.6600   -1.5200 C.x       1 LIG     -0.110400
      3 C2          6.8590    1.5430   -0.4760 C.x       1 LIG     -0.214700
      4 C3          5.6530    1.4920    0.4260 C.        1 LIG      0.688100
      5 O           5.4800    2.3590    1.2560 O.3       1 LIG     -0.604100
      6 N           4.7670    0.4830    0.3100 N.        1 LIG     -0.466800
      7 C4          4.9680   -0.5770   -0.6880 C.3       1 LIG      0.064000
      8 C5          3.7130   -0.6680   -1.5660 C.3       1 LIG      0.063500
      9 C6          3.5860    0.4200    1.1830 C.3       1 LIG      0.064000
     10 C7          2.3320    0.3360    0.3050 C.3       1 LIG      0.063500
     11 N1          2.5330   -0.7300   -0.6930 N.        1 LIG     -0.457800
     12 C8          1.6490   -1.7420   -0.8060 C.        1 LIG      0.675700
     13 O1          1.7840   -2.5720   -1.6840 O.3       1 LIG     -0.586100
     14 C9          0.5170   -1.8430    0.1380 C.a       1 LIG     -0.165600
     15 C10        -0.3520   -0.7630    0.3080 C.a       1 LIG     -0.060000
     16 C11         0.3070   -3.0210    0.8600 C.a       1 LIG      0.148900
     17 F           1.1400   -4.0730    0.6980 F.        1 LIG     -0.134900
     18 C12        -0.7560   -3.1070    1.7410 C.a       1 LIG     -0.167000
     19 C13        -1.6070   -2.0310    1.9070 C.a       1 LIG     -0.073000
     20 C14        -1.4070   -0.8630    1.1900 C.a       1 LIG     -0.088300
     21 C15        -2.3450    0.3010    1.3740 C.3       1 LIG     -0.050400
     22 C16        -3.4830    0.1900    0.3920 C.c       1 LIG      0.342900
     23 C17        -4.5300    1.2120    0.3680 C.a       1 LIG     -0.104900
     24 C18        -4.5170    2.3020    1.2400 C.a       1 LIG     -0.130000
     25 C19        -5.5180    3.2300    1.1780 C.a       1 LIG     -0.097000
     26 C20        -6.5520    3.1050    0.2580 C.a       1 LIG     -0.137000
     27 C21        -6.5910    2.0400   -0.6150 C.a       1 LIG     -0.066000
     28 C22        -5.5800    1.0800   -0.5700 C.a       1 LIG     -0.141600
     29 C23        -5.5650   -0.0770   -1.4730 C.        1 LIG      0.685100
     30 O2         -6.4480   -0.2330   -2.2980 O.3       1 LIG     -0.613500
     31 N2         -4.5540   -0.9660   -1.3720 N.        1 LIG     -0.298900
     32 N3         -3.5300   -0.8100   -0.4370 N.d       1 LIG     -0.412300
     33 H           7.6530    3.4390    0.4720 H         1 LIG      0.081450
     34 H1          8.8830    2.8070   -0.1420 H         1 LIG      0.081450
     35 H2          7.3260    2.4680   -2.4880 H         1 LIG      0.081450
     36 H3          6.1950    3.3220   -1.9580 H         1 LIG      0.081450
     37 H4          6.9550    0.4780   -0.5010 H         1 LIG      0.101700
     38 H5          5.1300   -1.5120   -0.1930 H         1 LIG      0.068450
     39 H6          5.8220   -0.3520   -1.2930 H         1 LIG      0.068450
     40 H7          3.6500    0.1950   -2.1960 H         1 LIG      0.066450
     41 H8          3.7600   -1.5430   -2.1800 H         1 LIG      0.066450
     42 H9          3.5410    1.2980    1.7920 H         1 LIG      0.068450
     43 H10         3.6460   -0.4400    1.8170 H         1 LIG      0.068450
     44 H11         2.1750    1.2710   -0.1910 H         1 LIG      0.066450
     45 H12         1.4750    0.1180    0.9080 H         1 LIG      0.066450
     46 H13        -0.2050    0.1080   -0.2250 H         1 LIG      0.152000
     47 H14        -0.9140   -3.9760    2.2750 H         1 LIG      0.155000
     48 H15        -2.3960   -2.0980    2.5690 H         1 LIG      0.145000
     49 H16        -1.8160    1.2160    1.2050 H         1 LIG      0.065200
     50 H17        -2.7330    0.2920    2.3710 H         1 LIG      0.065200
     51 H18        -3.7550    2.4060    1.9280 H         1 LIG      0.140000
     52 H19        -5.5060    4.0350    1.8230 H         1 LIG      0.139000
     53 H20        -7.2980    3.8170    0.2290 H         1 LIG      0.143000
     54 H21        -7.3610    1.9530   -1.2960 H         1 LIG      0.163000
     55 H22        -4.5390   -1.7450   -1.9740 H         1 LIG      0.362500
@<TRIPOS>BOND
     1    1    2 1   
     2    3    1 1   
     3    3    2 1   
     4    4    3 1   
     5    5    4 2   
     6    6    9 1   
     7    6    4 1   
     8    7    6 1   
     9    8   11 1   
    10    8    7 1   
    11   10    9 1   
    12   11   10 1   
    13   12   14 1   
    14   12   11 1   
    15   13   12 2   
    16   14   16 ar  
    17   15   20 ar  
    18   15   14 ar  
    19   16   18 ar  
    20   16   17 1   
    21   19   18 ar  
    22   20   19 ar  
    23   21   20 1   
    24   22   32 2   
    25   22   21 1   
    26   23   22 1   
    27   24   23 ar  
    28   25   24 ar  
    29   26   27 ar  
    30   26   25 ar  
    31   27   28 ar  
    32   28   29 1   
    33   28   23 ar  
    34   29   31 1   
    35   30   29 2   
    36   31   32 1   
    37    1   33 1   
    38    1   34 1   
    39    2   35 1   
    40    2   36 1   
    41    3   37 1   
    42    7   38 1   
    43    7   39 1   
    44    8   40 1   
    45    8   41 1   
    46    9   42 1   
    47    9   43 1   
    48   10   44 1   
    49   10   45 1   
    50   15   46 1   
    51   18   47 1   
    52   19   48 1   
    53   21   49 1   
    54   21   50 1   
    55   24   51 1   
    56   25   52 1   
    57   26   53 1   
    58   27   54 1   
    59   31   55 1   
@<TRIPOS>SUBSTRUCTURE
     1 LIG         1 TEMP              0 ****  ****    0 ROOT
