@<TRIPOS>MOLECULE
HND
   31    30     1     0     0
SMALL
bcc


@<TRIPOS>ATOM
      1 C          -4.2290   -0.6660    0.1880 C.3       1 LIG      0.127400
      2 C1         -3.0020    0.1240   -0.2740 C.3       1 LIG     -0.120400
      3 C2         -1.7360   -0.5270    0.2850 C.3       1 LIG     -0.107400
      4 C3         -0.5100    0.2630   -0.1760 C.3       1 LIG      0.136100
      5 C4          0.7620   -0.4580    0.2780 C.3       1 LIG     -0.110400
      6 C5          1.9860    0.2630   -0.2890 C.3       1 LIG     -0.079400
      7 C6          3.2570   -0.4570    0.1650 C.3       1 LIG     -0.078400
      8 C7          4.4820    0.2640   -0.4020 C.3       1 LIG     -0.080400
      9 C8          5.7530   -0.4560    0.0520 C.3       1 LIG     -0.093100
     10 O          -0.5440    1.5730    0.3940 O.h       1 LIG     -0.594800
     11 O1         -5.4110   -0.0570   -0.3350 O.h       1 LIG     -0.597800
     12 H          -4.1590   -1.6730   -0.1670 H         1 LIG      0.042700
     13 H1         -4.2710   -0.6670    1.2570 H         1 LIG      0.042700
     14 H2         -3.0720    1.1310    0.0810 H         1 LIG      0.055700
     15 H3         -2.9600    0.1250   -1.3430 H         1 LIG      0.055700
     16 H4         -1.6660   -1.5340   -0.0700 H         1 LIG      0.045700
     17 H5         -1.7780   -0.5280    1.3540 H         1 LIG      0.045700
     18 H6         -0.5160    0.3390   -1.2430 H         1 LIG      0.076700
     19 H7          0.7460   -1.4670   -0.0770 H         1 LIG      0.044200
     20 H8          0.8110   -0.4570    1.3470 H         1 LIG      0.044200
     21 H9          2.0020    1.2720    0.0660 H         1 LIG      0.048200
     22 H10         1.9380    0.2620   -1.3580 H         1 LIG      0.048200
     23 H11         3.2410   -1.4660   -0.1900 H         1 LIG      0.038200
     24 H12         3.3050   -0.4550    1.2340 H         1 LIG      0.038200
     25 H13         4.4980    1.2730   -0.0470 H         1 LIG      0.039700
     26 H14         4.4340    0.2620   -1.4710 H         1 LIG      0.039700
     27 H15         5.8010   -0.4540    1.1210 H         1 LIG      0.032700
     28 H16         6.6090    0.0480   -0.3440 H         1 LIG      0.032700
     29 H17         5.7370   -1.4650   -0.3030 H         1 LIG      0.032700
     30 H18        -0.5390    1.5050    1.3620 H         1 LIG      0.397000
     31 H19        -5.3720   -0.0560   -1.3040 H         1 LIG      0.397000
@<TRIPOS>BOND
     1    1   11 1   
     2    2    1 1   
     3    2    3 1   
     4    4    3 1   
     5    4   10 1   
     6    5    4 1   
     7    6    5 1   
     8    7    6 1   
     9    7    8 1   
    10    9    8 1   
    11    1   12 1   
    12    1   13 1   
    13    2   14 1   
    14    2   15 1   
    15    3   16 1   
    16    3   17 1   
    17    4   18 1   
    18    5   19 1   
    19    5   20 1   
    20    6   21 1   
    21    6   22 1   
    22    7   23 1   
    23    7   24 1   
    24    8   25 1   
    25    8   26 1   
    26    9   27 1   
    27    9   28 1   
    28    9   29 1   
    29   10   30 1   
    30   11   31 1   
@<TRIPOS>SUBSTRUCTURE
     1 LIG         1 TEMP              0 ****  ****    0 ROOT
