@<TRIPOS>MOLECULE
LWM
   40    41     1     0     0
SMALL
bcc


@<TRIPOS>ATOM
      1 P           5.7910    0.4200   -0.0380 P.5       1 LIG      1.345900
      2 N          -5.3720   -1.1260   -0.0390 N.        1 LIG     -0.497400
      3 C          -4.3250   -1.8890    0.3770 C.c       1 LIG      0.614800
      4 N1         -4.5520   -3.1850    0.7630 N.h       1 LIG     -0.870800
      5 N2         -3.1000   -1.4120    0.4160 N.d       1 LIG     -0.707300
      6 C1         -2.8340   -0.1530    0.0480 C.d       1 LIG      0.409600
      7 C2         -3.8670    0.6710   -0.3860 C.c       1 LIG     -0.205600
      8 C3         -5.1690    0.1500   -0.4290 C.        1 LIG      0.721700
      9 O          -6.1030    0.8410   -0.8040 O.3       1 LIG     -0.671500
     10 N3         -3.6120    1.9990   -0.7790 N.        1 LIG     -0.449100
     11 C4         -4.2310    3.0190   -0.1510 C.        1 LIG      0.661900
     12 O1         -4.9410    2.7990    0.8080 O.3       1 LIG     -0.682100
     13 N4         -1.5380    0.3270    0.0980 N.h       1 LIG     -0.708000
     14 C5         -0.4520   -0.5430    0.5550 C.3       1 LIG      0.211500
     15 O2          6.3340    0.9340    1.3880 O.3       1 LIG     -0.927833
     16 C6          0.1080   -1.3540   -0.6270 C.3       1 LIG     -0.098400
     17 O3          6.8130   -0.6680   -0.6410 O.3       1 LIG     -0.927833
     18 C7          1.5950   -0.9670   -0.7620 C.3       1 LIG      0.121100
     19 O4          2.3780   -2.1090   -1.1150 O.h       1 LIG     -0.644800
     20 C8          1.9840   -0.4570    0.6480 C.3       1 LIG     -0.132700
     21 C9          3.1900    0.4820    0.5710 C.3       1 LIG      0.230400
     22 O5          4.3410   -0.2540    0.1510 O.2       1 LIG     -0.572200
     23 C10         0.7140    0.3080    1.0990 C.3       1 LIG     -0.071400
     24 O6          5.6850    1.5660   -0.9680 O.3       1 LIG     -0.927833
     25 H          -6.2800   -1.5060   -0.0560 H         1 LIG      0.312500
     26 H1         -5.4650   -3.5530    0.7380 H         1 LIG      0.374300
     27 H2         -3.8020   -3.7470    1.0650 H         1 LIG      0.374300
     28 H3         -2.9820    2.1830   -1.5120 H         1 LIG      0.405500
     29 H4         -4.1010    3.9860   -0.4860 H         1 LIG      0.041200
     30 H5         -1.3450    1.2540   -0.1740 H         1 LIG      0.525800
     31 H6         -0.8460   -1.1880    1.3130 H         1 LIG      0.037700
     32 H7         -0.4200   -1.1100   -1.5250 H         1 LIG      0.034700
     33 H8         -0.0040   -2.4050   -0.4610 H         1 LIG      0.034700
     34 H9          1.7620   -0.2350   -1.5240 H         1 LIG      0.146700
     35 H10         2.2570   -2.8030   -0.4480 H         1 LIG      0.424000
     36 H11         2.2680   -1.2390    1.3210 H         1 LIG      0.023700
     37 H12         3.3720    0.9090    1.5350 H         1 LIG     -0.008300
     38 H13         2.9900    1.2630   -0.1330 H         1 LIG     -0.008300
     39 H14         0.6940    1.2920    0.6790 H         1 LIG      0.028700
     40 H15         0.6680    0.4370    2.1600 H         1 LIG      0.028700
@<TRIPOS>BOND
     1    1   22 1   
     2    1   24 1   
     3    3    2 1   
     4    3    4 1   
     5    5    3 2   
     6    6    5 1   
     7    7    6 2   
     8    7    8 1   
     9    8    2 1   
    10    8    9 2   
    11   10    7 1   
    12   11   10 1   
    13   11   12 2   
    14   13    6 1   
    15   14   13 1   
    16   15    1 1   
    17   16   14 1   
    18   17    1 1   
    19   18   16 1   
    20   18   20 1   
    21   18   19 1   
    22   20   23 1   
    23   21   20 1   
    24   22   21 1   
    25   23   14 1   
    26    2   25 1   
    27    4   26 1   
    28    4   27 1   
    29   10   28 1   
    30   11   29 1   
    31   13   30 1   
    32   14   31 1   
    33   16   32 1   
    34   16   33 1   
    35   18   34 1   
    36   19   35 1   
    37   20   36 1   
    38   21   37 1   
    39   21   38 1   
    40   23   39 1   
    41   23   40 1   
@<TRIPOS>SUBSTRUCTURE
     1 LIG         1 TEMP              0 ****  ****    0 ROOT
