@<TRIPOS>MOLECULE
JD5
   40    42     1     0     0
SMALL
bcc


@<TRIPOS>ATOM
      1 O           2.9210   -2.3250   -0.6220 o         1 LIG     -0.834833
      2 P           3.8690   -1.1930   -0.7340 p5        1 LIG      1.076200
      3 O1          5.3570   -1.7040   -0.3930 o         1 LIG     -0.834833
      4 O2          3.8320   -0.6100   -2.2350 o         1 LIG     -0.834833
      5 C           3.3920    0.1180    0.4390 c3        1 LIG      0.727100
      6 P1          4.5590    1.5120    0.3000 p5        1 LIG      1.076200
      7 O3          4.5250    2.0470   -1.0790 o         1 LIG     -0.834833
      8 O4          4.1370    2.6700    1.3360 o         1 LIG     -0.834833
      9 O5          6.0470    1.0010    0.6410 o         1 LIG     -0.834833
     10 N           2.0370    0.5820    0.1280 nh        1 LIG     -0.560600
     11 C1          0.9340   -0.2060    0.4640 ca        1 LIG     -0.046700
     12 C2         -0.3550    0.2260    0.1730 ca        1 LIG     -0.101000
     13 C3          1.1110   -1.4360    1.0880 ca        1 LIG      0.421200
     14 N1          0.0770   -2.1880    1.4100 nb        1 LIG     -0.642000
     15 C4         -1.1610   -1.8140    1.1580 ca        1 LIG      0.384200
     16 C5         -1.4250   -0.5990    0.5290 cp        1 LIG     -0.182300
     17 C6         -2.8210   -0.1840    0.2490 cp        1 LIG     -0.023000
     18 C7         -3.8820   -1.0120    0.6130 ca        1 LIG     -0.097000
     19 C8         -5.1790   -0.6230    0.3510 ca        1 LIG     -0.172500
     20 C9         -3.0750    1.0360   -0.3750 ca        1 LIG     -0.097000
     21 C10        -4.3740    1.4190   -0.6340 ca        1 LIG     -0.172500
     22 C11        -5.4290    0.5900   -0.2750 ca        1 LIG      0.096100
     23 O6         -6.7080    0.9700   -0.5320 os        1 LIG     -0.308900
     24 C12        -7.7350    0.0130   -0.2660 cx        1 LIG      0.085100
     25 C13        -8.9720    0.4980    0.4920 cx        1 LIG     -0.145400
     26 C14        -9.0660    0.1810   -1.0020 cx        1 LIG     -0.145400
     27 H           3.4160   -0.2690    1.4360 h1        1 LIG      0.101700
     28 H1          1.9040    1.4500   -0.3180 hn        1 LIG      0.510800
     29 H2         -0.5170    1.1320   -0.2940 ha        1 LIG      0.148000
     30 H3          2.0650   -1.7650    1.3020 h4        1 LIG      0.121100
     31 H4         -1.9440   -2.4280    1.4300 h4        1 LIG      0.006100
     32 H5         -3.6970   -1.9150    1.0780 ha        1 LIG      0.144000
     33 H6         -5.9650   -1.2350    0.6210 ha        1 LIG      0.136000
     34 H7         -2.2920    1.6520   -0.6430 ha        1 LIG      0.144000
     35 H8         -4.5630    2.3230   -1.0950 ha        1 LIG      0.136000
     36 H9         -7.0350   -0.7870   -0.1410 h1        1 LIG      0.087700
     37 H10        -9.0300    1.5120    0.8280 hc        1 LIG      0.075450
     38 H11        -9.4960    0.1770    1.3680 hc        1 LIG      0.075450
     39 H12        -9.6070   -0.6810   -1.3330 hc        1 LIG      0.075450
     40 H13        -9.3880    0.7170   -1.8700 hc        1 LIG      0.075450
@<TRIPOS>BOND
     1    1    2 1   
     2    2    3 1   
     3    2    5 1   
     4    4    2 1   
     5    5   10 1   
     6    5    6 1   
     7    6    8 1   
     8    6    9 1   
     9    7    6 1   
    10   11   10 1   
    11   11   12 ar  
    12   13   11 ar  
    13   14   13 ar  
    14   14   15 ar  
    15   15   16 ar  
    16   16   12 ar  
    17   16   17 1   
    18   17   18 ar  
    19   17   20 ar  
    20   18   19 ar  
    21   19   22 ar  
    22   20   21 ar  
    23   21   22 ar  
    24   22   23 1   
    25   23   24 1   
    26   24   26 1   
    27   25   24 1   
    28   25   26 1   
    29    5   27 1   
    30   10   28 1   
    31   12   29 1   
    32   13   30 1   
    33   15   31 1   
    34   18   32 1   
    35   19   33 1   
    36   20   34 1   
    37   21   35 1   
    38   24   36 1   
    39   25   37 1   
    40   25   38 1   
    41   26   39 1   
    42   26   40 1   
@<TRIPOS>SUBSTRUCTURE
     1 LIG         1 TEMP              0 ****  ****    0 ROOT
