@<TRIPOS>MOLECULE
DJN
   31    31     1     0     0
SMALL
bcc


@<TRIPOS>ATOM
      1 O1         -2.9390   -1.0400    1.2120 O.3       1 <1>     -0.608100
      2 C1         -3.1590   -0.5430    0.1280 C.        1 <1>      0.669100
      3 C2         -4.5560   -0.5530   -0.4360 C.3       1 <1>     -0.172100
      4 N1         -2.1550    0.0230   -0.5710 N.        1 <1>     -0.583900
      5 C3         -0.7970    0.0370   -0.0200 C.3       1 <1>      0.076700
      6 C4         -0.0110    1.2010   -0.6290 C.3       1 <1>      0.101100
      7 O2         -0.6320    2.4370   -0.2700 O.h       1 <1>     -0.564800
      8 C5          1.4240    1.1740   -0.0950 C.3       1 <1>      0.092100
      9 O3          1.4080    1.3540    1.3230 O.h       1 <1>     -0.616800
     10 C6          2.0620   -0.1760   -0.4310 C.3       1 <1>      0.114500
     11 C7          3.4900   -0.2160    0.1190 C.3       1 <1>      0.113400
     12 O4          4.1260   -1.4270   -0.2940 O.h       1 <1>     -0.630800
     13 N2          1.2740   -1.2570    0.1750 N.4       1 <1>     -0.746000
     14 C8         -0.0940   -1.2790   -0.3590 C.3       1 <1>      0.078800
     15 H1         -5.2150   -1.0400    0.2520 H         1 <1>      0.085033
     16 H2         -4.5610   -1.0790   -1.3680 H         1 <1>      0.085033
     17 H3         -4.8850    0.4530   -0.5930 H         1 <1>      0.085033
     18 H4         -2.3340    0.4270   -1.4510 H         1 <1>      0.339500
     19 H5         -0.8460    0.1540    1.0420 H         1 <1>      0.081700
     20 H6          0.0010    1.1080   -1.6950 H         1 <1>      0.107700
     21 H7         -0.6440    2.5240    0.6960 H         1 <1>      0.421000
     22 H8          1.9900    1.9610   -0.5470 H         1 <1>      0.103700
     23 H9          0.8950    0.6410    1.7340 H         1 <1>      0.449000
     24 H10         2.0840   -0.3040   -1.4930 H         1 <1>      0.118700
     25 H11         3.4620   -0.1750    1.1880 H         1 <1>      0.076200
     26 H12         4.0400    0.6220   -0.2560 H         1 <1>      0.076200
     27 H13         3.6270   -2.1860    0.0460 H         1 <1>      0.455000
     28 H14         1.2350   -1.1150    1.1840 H         1 <1>      0.471300
     29 H15         1.7220   -2.1470   -0.0460 H         1 <1>      0.471300
     30 H16        -0.0600   -1.4010   -1.4210 H         1 <1>      0.126200
     31 H17        -0.6330   -2.0930    0.0780 H         1 <1>      0.126200
@<TRIPOS>BOND
     1    1    2 2   
     2    2    4 1   
     3    2    3 1   
     4    5    4 1   
     5    5   14 1   
     6    6    5 1   
     7    7    6 1   
     8    8    6 1   
     9    8   10 1   
    10    9    8 1   
    11   10   13 1   
    12   11   10 1   
    13   11   12 1   
    14   13   14 1   
    15    3   15 1   
    16    3   16 1   
    17    3   17 1   
    18    4   18 1   
    19    5   19 1   
    20    6   20 1   
    21    7   21 1   
    22    8   22 1   
    23    9   23 1   
    24   10   24 1   
    25   11   25 1   
    26   11   26 1   
    27   12   27 1   
    28   13   28 1   
    29   13   29 1   
    30   14   30 1   
    31   14   31 1   
@<TRIPOS>SUBSTRUCTURE
     1 <1>         1 TEMP              0 ****  ****    0 ROOT
