@<TRIPOS>MOLECULE
LPC
   77    76     1     0     0
SMALL
bcc


@<TRIPOS>ATOM
      1 C         -10.8540    0.2680   -1.2900 C.3       1 LIG      0.077100
      2 C1        -12.0820    1.3780    0.4460 C.3       1 LIG      0.077100
      3 C2         -9.7710    1.9070    0.0870 C.3       1 LIG      0.077100
      4 N         -10.7730    0.8330    0.0640 N.4       1 LIG     -0.582800
      5 C3        -10.3840   -0.2190    1.0120 C.3       1 LIG      0.086800
      6 C4         -9.0890   -0.8810    0.5370 C.3       1 LIG      0.187400
      7 O          -8.0180    0.0630    0.6070 O.2       1 LIG     -0.577200
      8 P          -6.6940   -0.6960    0.0960 P.5       1 LIG      1.428800
      9 O1         -6.8630   -1.0830   -1.4580 O.3       1 LIG     -0.818000
     10 O2         -6.4930   -1.9280    0.8910 O.3       1 LIG     -0.818000
     11 O3         -5.4190    0.2700    0.2720 O.2       1 LIG     -0.563200
     12 C5         -4.2670   -0.4960   -0.0850 C.3       1 LIG      0.131400
     13 C6         -3.0130    0.3690    0.0620 C.3       1 LIG      0.141100
     14 O4         -3.0610    1.4410   -0.8820 O.h       1 LIG     -0.607800
     15 C7         -1.7710   -0.4850   -0.2000 C.3       1 LIG      0.136400
     16 O5          0.7370   -1.3920   -0.4710 O.3       1 LIG     -0.545000
     17 O6         -0.5790    0.3040    0.0550 O.2       1 LIG     -0.442900
     18 C8          0.6360   -0.2430   -0.1110 C.        1 LIG      0.632100
     19 C9          1.8730    0.5760    0.1530 C.3       1 LIG     -0.127400
     20 C10         3.1150   -0.2780   -0.1080 C.3       1 LIG     -0.079400
     21 C11         4.3710    0.5540    0.1600 C.3       1 LIG     -0.078400
     22 C12         5.6140   -0.3000   -0.1020 C.3       1 LIG     -0.079400
     23 C13         6.8700    0.5310    0.1660 C.3       1 LIG     -0.078400
     24 C14         8.1120   -0.3230   -0.0950 C.3       1 LIG     -0.079400
     25 C15         9.3680    0.5090    0.1730 C.3       1 LIG     -0.078400
     26 C16        10.6100   -0.3450   -0.0890 C.3       1 LIG     -0.079400
     27 C17        11.8660    0.4860    0.1790 C.3       1 LIG     -0.078400
     28 C18        13.1090   -0.3680   -0.0820 C.3       1 LIG     -0.079400
     29 C19        14.3650    0.4640    0.1860 C.3       1 LIG     -0.079400
     30 C20        15.6070   -0.3900   -0.0760 C.3       1 LIG     -0.080400
     31 C21        16.8630    0.4420    0.1920 C.3       1 LIG     -0.092100
     32 H         -11.1370    1.0350   -1.9800 H         1 LIG      0.100367
     33 H1        -11.5840   -0.5140   -1.3070 H         1 LIG      0.100367
     34 H2         -9.9000   -0.1280   -1.5690 H         1 LIG      0.100367
     35 H3        -12.3650    2.1440   -0.2450 H         1 LIG      0.100367
     36 H4        -12.0230    1.7910    1.4310 H         1 LIG      0.100367
     37 H5        -12.8120    0.5960    0.4300 H         1 LIG      0.100367
     38 H6        -10.0540    2.6740   -0.6040 H         1 LIG      0.100367
     39 H7         -8.8170    1.5110   -0.1910 H         1 LIG      0.100367
     40 H8         -9.7120    2.3190    1.0730 H         1 LIG      0.100367
     41 H9        -11.1600   -0.9530    1.0680 H         1 LIG      0.079200
     42 H10       -10.2300    0.2120    1.9790 H         1 LIG      0.079200
     43 H11        -9.2070   -1.2120   -0.4740 H         1 LIG      0.061700
     44 H12        -8.8670   -1.7200    1.1630 H         1 LIG      0.061700
     45 H13        -4.3570   -0.8240   -1.0990 H         1 LIG      0.050700
     46 H14        -4.1910   -1.3470    0.5590 H         1 LIG      0.050700
     47 H15        -2.9690    0.7680    1.0540 H         1 LIG      0.059700
     48 H16        -3.1010    1.0790   -1.7810 H         1 LIG      0.427000
     49 H17        -1.7710   -0.8120   -1.2190 H         1 LIG      0.067700
     50 H18        -1.7800   -1.3370    0.4480 H         1 LIG      0.067700
     51 H19         1.8730    0.9040    1.1710 H         1 LIG      0.075700
     52 H20         1.8830    1.4270   -0.4950 H         1 LIG      0.075700
     53 H21         3.1150   -0.6060   -1.1270 H         1 LIG      0.058700
     54 H22         3.1060   -1.1290    0.5400 H         1 LIG      0.058700
     55 H23         4.3710    0.8810    1.1790 H         1 LIG      0.039700
     56 H24         4.3800    1.4050   -0.4880 H         1 LIG      0.039700
     57 H25         5.6140   -0.6270   -1.1210 H         1 LIG      0.043200
     58 H26         5.6050   -1.1510    0.5460 H         1 LIG      0.043200
     59 H27         6.8700    0.8590    1.1850 H         1 LIG      0.038700
     60 H28         6.8800    1.3820   -0.4830 H         1 LIG      0.038700
     61 H29         8.1120   -0.6510   -1.1130 H         1 LIG      0.040700
     62 H30         8.1030   -1.1740    0.5530 H         1 LIG      0.040700
     63 H31         9.3680    0.8360    1.1920 H         1 LIG      0.038700
     64 H32         9.3770    1.3610   -0.4750 H         1 LIG      0.038700
     65 H33        10.6100   -0.6720   -1.1080 H         1 LIG      0.039700
     66 H34        10.6010   -1.1960    0.5590 H         1 LIG      0.039700
     67 H35        11.8660    0.8140    1.1980 H         1 LIG      0.038700
     68 H36        11.8760    1.3370   -0.4700 H         1 LIG      0.038700
     69 H37        13.1090   -0.6960   -1.1010 H         1 LIG      0.039700
     70 H38        13.1000   -1.2190    0.5670 H         1 LIG      0.039700
     71 H39        14.3660    0.7910    1.2050 H         1 LIG      0.038700
     72 H40        14.3740    1.3150   -0.4620 H         1 LIG      0.038700
     73 H41        15.6070   -0.7170   -1.0950 H         1 LIG      0.038700
     74 H42        15.5980   -1.2420    0.5720 H         1 LIG      0.038700
     75 H43        16.8720    1.2930   -0.4560 H         1 LIG      0.032700
     76 H44        17.7320   -0.1550    0.0090 H         1 LIG      0.032700
     77 H45        16.8630    0.7690    1.2110 H         1 LIG      0.032700
@<TRIPOS>BOND
     1    1    4 1   
     2    2    4 1   
     3    3    4 1   
     4    4    5 1   
     5    5    6 1   
     6    6    7 1   
     7    7    8 1   
     8    8    9 1   
     9    8   10 1   
    10    8   11 1   
    11   11   12 1   
    12   12   13 1   
    13   13   14 1   
    14   13   15 1   
    15   15   17 1   
    16   16   18 2   
    17   17   18 1   
    18   18   19 1   
    19   19   20 1   
    20   20   21 1   
    21   21   22 1   
    22   22   23 1   
    23   23   24 1   
    24   24   25 1   
    25   25   26 1   
    26   26   27 1   
    27   27   28 1   
    28   28   29 1   
    29   29   30 1   
    30   30   31 1   
    31    1   32 1   
    32    1   33 1   
    33    1   34 1   
    34    2   35 1   
    35    2   36 1   
    36    2   37 1   
    37    3   38 1   
    38    3   39 1   
    39    3   40 1   
    40    5   41 1   
    41    5   42 1   
    42    6   43 1   
    43    6   44 1   
    44   12   45 1   
    45   12   46 1   
    46   13   47 1   
    47   14   48 1   
    48   15   49 1   
    49   15   50 1   
    50   19   51 1   
    51   19   52 1   
    52   20   53 1   
    53   20   54 1   
    54   21   55 1   
    55   21   56 1   
    56   22   57 1   
    57   22   58 1   
    58   23   59 1   
    59   23   60 1   
    60   24   61 1   
    61   24   62 1   
    62   25   63 1   
    63   25   64 1   
    64   26   65 1   
    65   26   66 1   
    66   27   67 1   
    67   27   68 1   
    68   28   69 1   
    69   28   70 1   
    70   29   71 1   
    71   29   72 1   
    72   30   73 1   
    73   30   74 1   
    74   31   75 1   
    75   31   76 1   
    76   31   77 1   
@<TRIPOS>SUBSTRUCTURE
     1 LIG         1 TEMP              0 ****  ****    0 ROOT
