@<TRIPOS>MOLECULE
AQV
   49    52     1     0     0
SMALL
bcc


@<TRIPOS>ATOM
      1 C           3.9880    0.2360    0.6540 C.a       1 LIG     -0.135600
      2 C1          5.0890    0.8350    1.2460 C.a       1 LIG     -0.061500
      3 C2          6.2250    1.0800    0.4910 C.a       1 LIG     -0.116500
      4 C3          6.2670    0.7330   -0.8460 C.a       1 LIG     -0.116500
      5 C4          5.1740    0.1330   -1.4510 C.a       1 LIG     -0.061500
      6 C5          4.0310   -0.1190   -0.7090 C.a       1 LIG     -0.135600
      7 N           1.9690   -0.7060    0.1070 N.        1 LIG     -0.519400
      8 N1         -1.6920   -0.2930    0.0880 N.        1 LIG     -0.396000
      9 O           0.0310    0.9410   -0.5680 O.3       1 LIG     -0.552100
     10 C6          2.6470   -0.1600    1.1330 C.        1 LIG      0.727600
     11 C7          2.7170   -0.7240   -1.0110 C.        1 LIG      0.727600
     12 C8          0.6000   -1.2190    0.1970 C.3       1 LIG      0.039000
     13 C9         -0.3730   -0.1120   -0.1220 C.        1 LIG      0.651100
     14 C10        -2.2220   -1.6270    0.4050 C.3       1 LIG      0.132400
     15 C11        -3.4890   -1.8390   -0.4330 C.3       1 LIG     -0.086400
     16 C12        -4.5360   -0.8070   -0.0150 C.3       1 LIG     -0.014400
     17 C13        -3.9490    0.5800   -0.0400 C.a       1 LIG     -0.116300
     18 C14        -2.5800    0.7880    0.0140 C.a       1 LIG      0.090600
     19 O1          2.3670   -1.1570   -2.0910 O.3       1 LIG     -0.561500
     20 O2          2.2250   -0.0130    2.2620 O.3       1 LIG     -0.561500
     21 C15        -2.0720    2.0820   -0.0010 C.a       1 LIG     -0.150000
     22 C16        -2.9300    3.1610   -0.0770 C.a       1 LIG     -0.106000
     23 C17        -4.2960    2.9520   -0.1390 C.a       1 LIG     -0.157000
     24 C18        -4.8030    1.6680   -0.1180 C.a       1 LIG     -0.107000
     25 C19        -5.7220   -0.8710   -0.9800 C.3       1 LIG     -0.088100
     26 C20        -2.5660   -1.7070    1.8940 C.3       1 LIG     -0.110100
     27 C21        -1.1830   -2.6940    0.0540 C.3       1 LIG     -0.110100
     28 H           5.0630    1.0970    2.2440 H         1 LIG      0.159500
     29 H1          7.0460    1.5250    0.9310 H         1 LIG      0.144000
     30 H2          7.1180    0.9220   -1.3980 H         1 LIG      0.144000
     31 H3          5.2110   -0.1250   -2.4500 H         1 LIG      0.159500
     32 H4          0.4180   -1.5790    1.1880 H         1 LIG      0.094700
     33 H5          0.4720   -2.0190   -0.5020 H         1 LIG      0.094700
     34 H6         -3.8700   -2.8250   -0.2660 H         1 LIG      0.054200
     35 H7         -3.2600   -1.7240   -1.4720 H         1 LIG      0.054200
     36 H8         -4.8600   -1.0270    0.9810 H         1 LIG      0.054700
     37 H9         -1.0530    2.2360    0.0450 H         1 LIG      0.146000
     38 H10        -2.5530    4.1220   -0.0870 H         1 LIG      0.132000
     39 H11        -4.9380    3.7580   -0.2010 H         1 LIG      0.131000
     40 H12        -5.8230    1.5180   -0.1610 H         1 LIG      0.130000
     41 H13        -5.3870   -0.6490   -1.9720 H         1 LIG      0.038033
     42 H14        -6.4610   -0.1560   -0.6850 H         1 LIG      0.038033
     43 H15        -6.1470   -1.8530   -0.9580 H         1 LIG      0.038033
     44 H16        -3.2930   -0.9590    2.1330 H         1 LIG      0.046700
     45 H17        -1.6820   -1.5430    2.4740 H         1 LIG      0.046700
     46 H18        -2.9640   -2.6750    2.1160 H         1 LIG      0.046700
     47 H19        -0.9470   -2.6330   -0.9880 H         1 LIG      0.046700
     48 H20        -1.5790   -3.6630    0.2740 H         1 LIG      0.046700
     49 H21        -0.2960   -2.5320    0.6310 H         1 LIG      0.046700
@<TRIPOS>BOND
     1    1    6 ar  
     2    1    2 ar  
     3    2    3 ar  
     4    3    4 ar  
     5    5    4 ar  
     6    6    5 ar  
     7    7   10 1   
     8    7   11 1   
     9    8   18 1   
    10    8   13 1   
    11    9   13 2   
    12   10    1 1   
    13   11    6 1   
    14   12    7 1   
    15   13   12 1   
    16   14   15 1   
    17   14    8 1   
    18   15   16 1   
    19   16   17 1   
    20   16   25 1   
    21   17   24 ar  
    22   18   17 ar  
    23   18   21 ar  
    24   19   11 2   
    25   20   10 2   
    26   21   22 ar  
    27   22   23 ar  
    28   24   23 ar  
    29   26   14 1   
    30   27   14 1   
    31    2   28 1   
    32    3   29 1   
    33    4   30 1   
    34    5   31 1   
    35   12   32 1   
    36   12   33 1   
    37   15   34 1   
    38   15   35 1   
    39   16   36 1   
    40   21   37 1   
    41   22   38 1   
    42   23   39 1   
    43   24   40 1   
    44   25   41 1   
    45   25   42 1   
    46   25   43 1   
    47   26   44 1   
    48   26   45 1   
    49   26   46 1   
    50   27   47 1   
    51   27   48 1   
    52   27   49 1   
@<TRIPOS>SUBSTRUCTURE
     1 LIG         1 TEMP              0 ****  ****    0 ROOT
