@<TRIPOS>MOLECULE
DMF
   12    11     1     0     0
SMALL
bcc


@<TRIPOS>ATOM
      1 C          -0.7210    0.0000    1.6960 C.3       1 LIG      0.085800
      2 C1          1.4610    0.0000    0.4020 C.3       1 LIG      0.085800
      3 C2         -0.6910    0.0000   -0.7390 C.        1 LIG      0.655900
      4 O          -0.0970    0.0000   -1.7970 O.3       1 LIG     -0.600100
      5 N          -0.0030    0.0000    0.4190 N.        1 LIG     -0.498800
      6 H          -0.0170    0.0000    2.5010 H         1 LIG      0.040367
      7 H1         -1.3350   -0.8740    1.7600 H         1 LIG      0.040367
      8 H2         -1.3350    0.8740    1.7600 H         1 LIG      0.040367
      9 H3          1.8290    0.0000    1.4070 H         1 LIG      0.040367
     10 H4          1.8120    0.8740   -0.1060 H         1 LIG      0.040367
     11 H5          1.8120   -0.8740   -0.1060 H         1 LIG      0.040367
     12 H6         -1.7230    0.0000   -0.7260 H         1 LIG      0.029200
@<TRIPOS>BOND
     1    1    5 1   
     2    2    5 1   
     3    3    4 2   
     4    3    5 1   
     5    1    6 1   
     6    1    7 1   
     7    1    8 1   
     8    2    9 1   
     9    2   10 1   
    10    2   11 1   
    11    3   12 1   
@<TRIPOS>SUBSTRUCTURE
     1 LIG         1 TEMP              0 ****  ****    0 ROOT
