@<TRIPOS>MOLECULE
CEG
   30    31     1     0     0
SMALL
bcc


@<TRIPOS>ATOM
      1 C           0.9580    0.2030   -2.5050 c3        1 LIG      0.347900
      2 C1         -0.4870   -0.2950   -2.4850 c3        1 LIG      0.072100
      3 C2         -1.2370    0.3680   -1.3230 c3        1 LIG      0.120100
      4 C3         -0.4400    0.1230   -0.0380 c3        1 LIG      0.074100
      5 C4          0.9920    0.6270   -0.2490 c3        1 LIG      0.081100
      6 C5          1.7620    0.4760    1.0640 c3        1 LIG      0.145400
      7 C6         -0.2370    0.5480    2.2040 c3        1 LIG      0.199600
      8 C7         -0.0690   -0.9430    2.3330 c         1 LIG      0.897600
      9 C8         -0.9490    1.0840    3.4470 c3        1 LIG     -0.067100
     10 O           1.6510   -0.4050   -3.5960 oh        1 LIG     -0.591800
     11 O1         -1.1250    0.0400   -3.7190 oh        1 LIG     -0.601800
     12 O2         -2.5390   -0.2060   -1.1990 oh        1 LIG     -0.628800
     13 O3         -1.0260    0.8340    1.0500 os        1 LIG     -0.431600
     14 O4          1.6120   -0.1320   -1.2820 os        1 LIG     -0.447600
     15 O5          1.0460    1.1570    2.0980 os        1 LIG     -0.430600
     16 O6         -0.8990   -1.6870    1.8650 o         1 LIG     -0.812800
     17 O7          1.0010   -1.4460    2.9670 o         1 LIG     -0.812800
     18 H           0.9600    1.2670   -2.6200 h2        1 LIG      0.078700
     19 H1         -0.4980   -1.3570   -2.3580 h1        1 LIG      0.054700
     20 H2         -1.3400    1.4180   -1.5000 h1        1 LIG      0.062700
     21 H3         -0.4430   -0.9230    0.1880 h1        1 LIG      0.109700
     22 H4          0.9870    1.6570   -0.5390 h1        1 LIG      0.046700
     23 H5          2.7370    0.9030    0.9600 h1        1 LIG      0.064200
     24 H6          1.8600   -0.5600    1.3110 h1        1 LIG      0.064200
     25 H7         -1.9140    0.6280    3.5300 hc        1 LIG      0.042700
     26 H8         -1.0620    2.1450    3.3640 hc        1 LIG      0.042700
     27 H9         -0.3700    0.8540    4.3170 hc        1 LIG      0.042700
     28 H10         1.6450   -1.3690   -3.4860 ho        1 LIG      0.415000
     29 H11        -1.1170    1.0030   -3.8360 ho        1 LIG      0.416000
     30 H12        -2.4580   -1.1590   -1.0380 ho        1 LIG      0.447000
@<TRIPOS>BOND
     1    1    2 1   
     2    1   10 1   
     3    1   14 1   
     4    2    3 1   
     5    2   11 1   
     6    3    4 1   
     7    3   12 1   
     8    4    5 1   
     9    4   13 1   
    10    5    6 1   
    11    5   14 1   
    12    6   15 1   
    13    7    8 1   
    14    7    9 1   
    15    7   13 1   
    16    7   15 1   
    17    8   16 1   
    18    8   17 1   
    19    1   18 1   
    20    2   19 1   
    21    3   20 1   
    22    4   21 1   
    23    5   22 1   
    24    6   23 1   
    25    6   24 1   
    26    9   25 1   
    27    9   26 1   
    28    9   27 1   
    29   10   28 1   
    30   11   29 1   
    31   12   30 1   
@<TRIPOS>SUBSTRUCTURE
     1 LIG         1 TEMP              0 ****  ****    0 ROOT
