@<TRIPOS>MOLECULE
SE7
   16    15     1     0     0
SMALL
bcc


@<TRIPOS>ATOM
      1 N           1.3460    1.6930    0.4770 n4        1 LIG     -0.824600
      2 CA          1.3750    0.2260    0.4040 c3        1 LIG     -0.047500
      3 C           2.7380   -0.2280   -0.0500 c         1 LIG      0.939600
      4 O           3.4700    0.5420   -0.6260 o         1 LIG     -0.757800
      5 C1          0.3190   -0.2560   -0.5930 c3        1 LIG     -0.156100
      6 SE         -1.4670    0.1950    0.0780 s4        1 LIG      0.571700
      7 O1         -1.6560   -0.8920    1.1720 o         1 LIG     -0.583200
      8 O2         -2.5100   -0.4630   -1.2470 oh        1 LIG     -0.569800
      9 OXT         3.1390   -1.4870    0.1850 o         1 LIG     -0.757800
     10 H1          2.0500    2.0140    1.1420 hn        1 LIG      0.452800
     11 H2          0.4230    2.0000    0.7840 hn        1 LIG      0.452800
     12 H3          1.5450    2.0830   -0.4440 hn        1 LIG      0.452800
     13 HA          1.1670   -0.1830    1.3710 hx        1 LIG      0.091700
     14 H           0.3980   -1.3170   -0.7120 h1        1 LIG      0.140200
     15 H4          0.4760    0.2210   -1.5380 h1        1 LIG      0.140200
     16 H5         -2.4800    0.1360   -2.0090 ho        1 LIG      0.455000
@<TRIPOS>BOND
     1    1    2 1   
     2    2    3 1   
     3    2    5 1   
     4    3    4 1   
     5    3    9 1   
     6    5    6 1   
     7    6    7 2   
     8    6    8 1   
     9    1   10 1   
    10    1   11 1   
    11    1   12 1   
    12    2   13 1   
    13    5   14 1   
    14    5   15 1   
    15    8   16 1   
@<TRIPOS>SUBSTRUCTURE
     1 LIG         1 TEMP              0 ****  ****    0 ROOT
