@<TRIPOS>MOLECULE
5CU
   14    14     1     0     0
SMALL
bcc


@<TRIPOS>ATOM
      1 O           2.5950   -1.4480    0.0020 O.3       1 LIG     -0.811300
      2 C           2.0440   -0.3650    0.0020 C.        1 LIG      0.933800
      3 O1          2.7780    0.7660   -0.0040 O.3       1 LIG     -0.811300
      4 C1          0.5770   -0.2880    0.0020 C.c       1 LIG     -0.269400
      5 C2         -0.1130    1.0130    0.0010 C.        1 LIG      0.729700
      6 O2          0.5190    2.0520    0.0010 O.3       1 LIG     -0.599500
      7 N          -1.4630    1.0260    0.0000 N.        1 LIG     -0.606500
      8 C3         -2.1550   -0.1260    0.0000 C.        1 LIG      0.796500
      9 O3         -3.3700   -0.0820   -0.0010 O.3       1 LIG     -0.715500
     10 N1         -1.5490   -1.3240    0.0010 N.        1 LIG     -0.481100
     11 C4         -0.1960   -1.4340   -0.0040 C.d       1 LIG     -0.000400
     12 H          -1.9440    1.8850   -0.0010 H         1 LIG      0.326500
     13 H1         -2.0980   -2.1410    0.0050 H         1 LIG      0.330500
     14 H2          0.2510   -2.3640   -0.0120 H         1 LIG      0.177000
@<TRIPOS>BOND
     1    1    2 1   
     2    2    3 1   
     3    4    2 1   
     4    4    5 1   
     5    5    6 2   
     6    7    5 1   
     7    8    7 1   
     8    9    8 2   
     9   10   11 1   
    10   10    8 1   
    11   11    4 2   
    12    7   12 1   
    13   10   13 1   
    14   11   14 1   
@<TRIPOS>SUBSTRUCTURE
     1 LIG         1 TEMP              0 ****  ****    0 ROOT
