@<TRIPOS>MOLECULE
FSB
   34    35     1     0     0
SMALL
bcc


@<TRIPOS>ATOM
      1 C          -1.7640   -1.8720   -0.0580 ca        1 LIG     -0.121000
      2 C1         -3.0340   -1.3320   -0.0810 ca        1 LIG     -0.026500
      3 C2         -3.2070    0.0390   -0.0190 ca        1 LIG     -0.362500
      4 C3         -2.1100    0.8780    0.0670 ca        1 LIG     -0.026500
      5 C4         -0.8350    0.3520    0.0900 ca        1 LIG     -0.121000
      6 C5         -0.6530   -1.0310    0.0290 ca        1 LIG     -0.077600
      7 C6          0.7100   -1.6020    0.0540 c         1 LIG      0.661700
      8 O           0.8660   -2.8060    0.0010 o         1 LIG     -0.595100
      9 N           1.7810   -0.7870    0.1370 n         1 LIG     -0.555900
     10 C7          3.1320   -1.3530    0.1630 c3        1 LIG      0.134300
     11 S          -4.8320    0.7200   -0.0490 sy        1 LIG      1.525200
     12 N1         -5.3470    0.8300    1.5200 n3        1 LIG     -1.026700
     13 O1         -4.7000    2.0530   -0.5230 o         1 LIG     -0.654800
     14 O2         -5.6610   -0.2490   -0.6770 o         1 LIG     -0.654800
     15 C8          4.1410   -0.2390    0.2590 ca        1 LIG     -0.150300
     16 C9          4.7880    0.0070    1.4540 ca        1 LIG     -0.088000
     17 C10         5.7140    1.0300    1.5430 ca        1 LIG     -0.142000
     18 C11         5.9940    1.8080    0.4350 ca        1 LIG     -0.101000
     19 C12         5.3490    1.5630   -0.7630 ca        1 LIG     -0.163000
     20 C13         4.4250    0.5360   -0.8540 ca        1 LIG      0.122900
     21 F           3.7980    0.2930   -2.0250 f         1 LIG     -0.147900
     22 H          -1.6360   -2.8950   -0.1050 ha        1 LIG      0.153500
     23 H1         -3.8560   -1.9520   -0.1450 ha        1 LIG      0.157500
     24 H2         -2.2460    1.9000    0.1140 ha        1 LIG      0.157500
     25 H3         -0.0180    0.9790    0.1520 ha        1 LIG      0.153500
     26 H4          1.6550    0.1890    0.1800 hn        1 LIG      0.319500
     27 H5          3.3020   -1.9120   -0.7340 h1        1 LIG      0.077200
     28 H6          3.2320   -1.9990    1.0100 h1        1 LIG      0.077200
     29 H7         -4.7800    1.5170    2.0170 hn        1 LIG      0.449800
     30 H8         -5.2540   -0.0790    1.9730 hn        1 LIG      0.449800
     31 H9          4.5800   -0.5730    2.2820 ha        1 LIG      0.147000
     32 H10         6.1960    1.2130    2.4370 ha        1 LIG      0.141000
     33 H11         6.6850    2.5720    0.5020 ha        1 LIG      0.140000
     34 H12         5.5560    2.1460   -1.5890 ha        1 LIG      0.150000
@<TRIPOS>BOND
     1    1    2 ar  
     2    1    6 ar  
     3    2    3 ar  
     4    3    4 ar  
     5    3   11 1   
     6    4    5 ar  
     7    5    6 ar  
     8    6    7 1   
     9    7    8 2   
    10    7    9 1   
    11    9   10 1   
    12   10   15 1   
    13   11   12 1   
    14   11   13 2   
    15   11   14 2   
    16   15   16 ar  
    17   15   20 ar  
    18   16   17 ar  
    19   17   18 ar  
    20   18   19 ar  
    21   19   20 ar  
    22   20   21 1   
    23    1   22 1   
    24    2   23 1   
    25    4   24 1   
    26    5   25 1   
    27    9   26 1   
    28   10   27 1   
    29   10   28 1   
    30   12   29 1   
    31   12   30 1   
    32   16   31 1   
    33   17   32 1   
    34   18   33 1   
    35   19   34 1   
@<TRIPOS>SUBSTRUCTURE
     1 LIG         1 TEMP              0 ****  ****    0 ROOT
