@<TRIPOS>MOLECULE
GSP
   46    48     1     0     0
SMALL
bcc


@<TRIPOS>ATOM
      1 P          -1.0260   -0.4840    6.9150 p5        1 LIG      1.586200
      2 O          -1.0150   -1.1980    5.4720 os        1 LIG     -0.703800
      3 S          -1.7720    1.2160    6.7610 s         1 LIG     -0.892000
      4 O1         -1.9000   -1.3630    7.9420 oh        1 LIG     -0.796400
      5 O2          0.4820   -0.3600    7.4630 oh        1 LIG     -0.796400
      6 P1         -0.1280   -0.2700    4.5000 p5        1 LIG      1.700800
      7 O3         -0.7350    1.0760    4.4150 o         1 LIG     -0.894500
      8 O4          1.3650   -0.1500    5.0890 o         1 LIG     -0.894500
      9 P2          0.8230    0.0460    2.1170 p5        1 LIG      1.520800
     10 O5          0.2010    1.3880    2.0690 o         1 LIG     -0.807500
     11 O6          2.3000    0.1610    2.7460 o         1 LIG     -0.807500
     12 O7         -0.0740   -0.9280    3.0310 os        1 LIG     -0.709800
     13 O8          0.9190   -0.5540    0.6270 os        1 LIG     -0.585200
     14 C           1.7240    0.3500   -0.1310 c3        1 LIG      0.177400
     15 C1          1.8570   -0.1640   -1.5660 c3        1 LIG      0.062100
     16 O9          0.5590   -0.2360   -2.1960 os        1 LIG     -0.414600
     17 C2          2.6590    0.8360   -2.4270 c3        1 LIG      0.124100
     18 O10         4.0230    0.4240   -2.5340 oh        1 LIG     -0.664800
     19 C3          1.9650    0.7830   -3.8090 c3        1 LIG      0.120100
     20 O11         2.8810    0.3390   -4.8120 oh        1 LIG     -0.601800
     21 C4          0.8250   -0.2400   -3.6150 c3        1 LIG      0.204800
     22 N          -0.3660    0.1760   -4.3580 na        1 LIG     -0.186900
     23 C5         -1.3610    0.9890   -3.8980 cc        1 LIG      0.420400
     24 N1         -2.2630    1.1480   -4.8220 nd        1 LIG     -0.613000
     25 C6         -1.9020    0.4510   -5.9260 cd        1 LIG      0.184800
     26 C7         -2.4800    0.2590   -7.2030 c         1 LIG      0.649000
     27 O12        -3.5390    0.7880   -7.4950 o         1 LIG     -0.630500
     28 N2         -1.8270   -0.5190   -8.0930 n         1 LIG     -0.503400
     29 C8         -0.6460   -1.1100   -7.7540 cd        1 LIG      0.626800
     30 N3         -0.0080   -1.9000   -8.6770 nh        1 LIG     -0.871800
     31 N4         -0.0980   -0.9400   -6.5720 nc        1 LIG     -0.632100
     32 C9         -0.6850   -0.1770   -5.6410 cc        1 LIG      0.093800
     33 H          -2.8090   -1.4380    7.6120 ho        1 LIG      0.441000
     34 H1          1.0080    0.1700    6.8440 ho        1 LIG      0.441000
     35 H2          2.6950    0.4210    0.3140 h1        1 LIG      0.040200
     36 H3          1.2630    1.3160   -0.1400 h1        1 LIG      0.040200
     37 H4          2.3340   -1.1200   -1.5090 h1        1 LIG      0.142700
     38 H5          2.6720    1.8210   -2.0100 h1        1 LIG      0.094700
     39 H6          4.0620   -0.4690   -2.9090 ho        1 LIG      0.508000
     40 H7          1.6080    1.7390   -4.1310 h1        1 LIG      0.079700
     41 H8          3.2350   -0.5290   -4.5650 ho        1 LIG      0.436000
     42 H9          1.0910   -1.2130   -3.9730 h2        1 LIG      0.104700
     43 H10        -1.3930    1.4140   -2.9580 h5        1 LIG      0.091100
     44 H11        -2.2050   -0.6600   -8.9910 hn        1 LIG      0.326500
     45 H12        -0.4060   -2.0370   -9.5670 hn        1 LIG      0.394300
     46 H13         0.8480   -2.3300   -8.4490 hn        1 LIG      0.394300
@<TRIPOS>BOND
     1    1    2 1   
     2    1    3 2   
     3    1    4 1   
     4    1    5 1   
     5    2    6 1   
     6    6    7 1   
     7    6    8 1   
     8    6   12 1   
     9    9   10 1   
    10    9   11 1   
    11    9   12 1   
    12    9   13 1   
    13   13   14 1   
    14   14   15 1   
    15   15   16 1   
    16   15   17 1   
    17   16   21 1   
    18   17   18 1   
    19   17   19 1   
    20   19   20 1   
    21   19   21 1   
    22   21   22 1   
    23   22   23 ar  
    24   22   32 ar  
    25   23   24 ar  
    26   24   25 ar  
    27   25   26 1   
    28   25   32 ar  
    29   26   27 2   
    30   26   28 1   
    31   28   29 1   
    32   29   30 1   
    33   29   31 2   
    34   31   32 1   
    35    4   33 1   
    36    5   34 1   
    37   14   35 1   
    38   14   36 1   
    39   15   37 1   
    40   17   38 1   
    41   18   39 1   
    42   19   40 1   
    43   20   41 1   
    44   21   42 1   
    45   23   43 1   
    46   28   44 1   
    47   30   45 1   
    48   30   46 1   
@<TRIPOS>SUBSTRUCTURE
     1 LIG         1 TEMP              0 ****  ****    0 ROOT
