@<TRIPOS>MOLECULE
SLB
   39    39     1     0     0
SMALL
bcc


@<TRIPOS>ATOM
      1 C          -2.6420    0.3260   -2.1840 C.        1 LIG      0.930600
      2 C1         -1.8240   -0.1920   -1.0300 C.3       1 LIG      0.199600
      3 C2         -2.5200    0.1580    0.2860 C.3       1 LIG     -0.112400
      4 C3         -1.6960   -0.4020    1.4510 C.3       1 LIG      0.118100
      5 C4         -0.2550    0.1020    1.3200 C.3       1 LIG      0.020700
      6 C5          0.2700   -0.2430   -0.0750 C.3       1 LIG      0.119100
      7 C6          1.7200    0.2290   -0.2040 C.3       1 LIG      0.135100
      8 C7          2.2490   -0.1240   -1.5960 C.3       1 LIG      0.059100
      9 C8          3.6990    0.3470   -1.7250 C.3       1 LIG      0.107400
     10 C9          0.7370    0.0290    3.5440 C.        1 LIG      0.654100
     11 C10         1.6000   -0.6340    4.5860 C.3       1 LIG     -0.176100
     12 N           0.5830   -0.5420    2.3330 N.        1 LIG     -0.535900
     13 O          -2.1640    1.1280   -2.9520 O.3       1 LIG     -0.801800
     14 O1         -3.9030   -0.1000   -2.3590 O.3       1 LIG     -0.801800
     15 O2         -1.6990   -1.6120   -1.1380 O.h       1 LIG     -0.651800
     16 O3         -2.2490    0.0430    2.6910 O.h       1 LIG     -0.615800
     17 O4         -0.5270    0.4010   -1.0650 O.2       1 LIG     -0.437600
     18 O5          1.7790    1.6440   -0.0180 O.h       1 LIG     -0.607800
     19 O6          2.1900   -1.5390   -1.7820 O.h       1 LIG     -0.601800
     20 O7          4.1930    0.0170   -3.0250 O.h       1 LIG     -0.611800
     21 O8          0.1810    1.0770    3.7940 O.3       1 LIG     -0.613100
     22 H          -3.4990   -0.2730    0.2990 H         1 LIG      0.074200
     23 H1         -2.6030    1.2210    0.3800 H         1 LIG      0.074200
     24 H2         -1.7130   -1.4720    1.4270 H         1 LIG      0.075700
     25 H3         -0.2290    1.1620    1.4630 H         1 LIG      0.102700
     26 H4          0.2220   -1.3020   -0.2180 H         1 LIG      0.062700
     27 H5          2.3190   -0.2540    0.5390 H         1 LIG      0.061700
     28 H6          1.6500    0.3590   -2.3390 H         1 LIG      0.120700
     29 H7          4.2980   -0.1370   -0.9820 H         1 LIG      0.049700
     30 H8          3.7440    1.4070   -1.5850 H         1 LIG      0.049700
     31 H9          2.0050   -1.5420    4.1890 H         1 LIG      0.058367
     32 H10         1.0090   -0.8550    5.4500 H         1 LIG      0.058367
     33 H11         2.3990    0.0240    4.8590 H         1 LIG      0.058367
     34 H12         1.0340   -1.3930    2.1290 H         1 LIG      0.289500
     35 H13        -2.5800   -2.0170   -1.1140 H         1 LIG      0.441000
     36 H14        -2.2370    1.0120    2.7210 H         1 LIG      0.412000
     37 H15         1.2360    2.0820   -0.6920 H         1 LIG      0.441000
     38 H16         2.7330   -1.9770   -1.1080 H         1 LIG      0.387000
     39 H17         4.1520   -0.9440   -3.1520 H         1 LIG      0.407000
@<TRIPOS>BOND
     1    1    2 1   
     2    1   13 1   
     3    1   14 1   
     4    2    3 1   
     5    2   15 1   
     6    2   17 1   
     7    3    4 1   
     8    4    5 1   
     9    4   16 1   
    10    5    6 1   
    11    5   12 1   
    12    6    7 1   
    13    6   17 1   
    14    7    8 1   
    15    7   18 1   
    16    8    9 1   
    17    8   19 1   
    18    9   20 1   
    19   10   11 1   
    20   10   12 1   
    21   10   21 2   
    22    3   22 1   
    23    3   23 1   
    24    4   24 1   
    25    5   25 1   
    26    6   26 1   
    27    7   27 1   
    28    8   28 1   
    29    9   29 1   
    30    9   30 1   
    31   11   31 1   
    32   11   32 1   
    33   11   33 1   
    34   12   34 1   
    35   15   35 1   
    36   16   36 1   
    37   18   37 1   
    38   19   38 1   
    39   20   39 1   
@<TRIPOS>SUBSTRUCTURE
     1 LIG         1 TEMP              0 ****  ****    0 ROOT
