@<TRIPOS>MOLECULE
BTN
   31    32     1     0     0
SMALL
bcc


@<TRIPOS>ATOM
      1 C           5.0890   -0.2800    0.1730 C.        1 LIG      0.908600
      2 O           4.9560   -1.4730    0.0300 O.3       1 LIG     -0.850300
      3 O1          6.2990    0.2330    0.4440 O.3       1 LIG     -0.850300
      4 C1          3.8960    0.6310    0.0390 C.3       1 LIG     -0.196400
      5 C2          2.6510   -0.2000   -0.2760 C.3       1 LIG     -0.067400
      6 C3          1.4400    0.7250   -0.4120 C.3       1 LIG     -0.080400
      7 C4          0.1960   -0.1060   -0.7270 C.3       1 LIG     -0.075400
      8 C5         -1.0150    0.8190   -0.8630 C.3       1 LIG     -0.004600
      9 S          -1.4190    1.6040    0.7510 S.3       1 LIG     -0.280200
     10 C6         -3.2050    1.8270    0.3710 C.3       1 LIG     -0.051300
     11 C7         -3.5300    0.5810   -0.4760 C.3       1 LIG      0.048700
     12 N          -3.9700   -0.5070    0.4120 N.        1 LIG     -0.510900
     13 C8         -3.1410   -1.5490    0.2710 C.        1 LIG      0.746500
     14 O2         -3.2710   -2.5890    0.8880 O.3       1 LIG     -0.626500
     15 N1         -2.1540   -1.3430   -0.6120 N.        1 LIG     -0.512900
     16 C9         -2.2890    0.0100   -1.1750 C.3       1 LIG      0.060700
     17 H           4.0680    1.3290   -0.7530 H         1 LIG      0.021200
     18 H1          3.7480    1.1610    0.9570 H         1 LIG      0.021200
     19 H2          2.4790   -0.8980    0.5160 H         1 LIG      0.047200
     20 H3          2.7990   -0.7300   -1.1940 H         1 LIG      0.047200
     21 H4          1.6120    1.4240   -1.2040 H         1 LIG      0.036200
     22 H5          1.2920    1.2550    0.5050 H         1 LIG      0.036200
     23 H6          0.0240   -0.8050    0.0650 H         1 LIG      0.054700
     24 H7          0.3440   -0.6360   -1.6450 H         1 LIG      0.054700
     25 H8         -0.7600    1.5230   -1.6280 H         1 LIG      0.082700
     26 H9         -3.3720    2.7260   -0.1850 H         1 LIG      0.074200
     27 H10        -3.8170    1.9180    1.2440 H         1 LIG      0.074200
     28 H11        -4.2660    0.8900   -1.1880 H         1 LIG      0.080700
     29 H12        -4.7490   -0.4740    1.0130 H         1 LIG      0.301500
     30 H13        -1.4520   -1.9920   -0.8460 H         1 LIG      0.326500
     31 H14        -2.4010    0.0330   -2.2390 H         1 LIG      0.083700
@<TRIPOS>BOND
     1    1    2 1   
     2    1    3 1   
     3    1    4 1   
     4    4    5 1   
     5    5    6 1   
     6    6    7 1   
     7    7    8 1   
     8    8    9 1   
     9    8   16 1   
    10    9   10 1   
    11   10   11 1   
    12   11   12 1   
    13   11   16 1   
    14   12   13 1   
    15   13   14 2   
    16   13   15 1   
    17   15   16 1   
    18    4   17 1   
    19    4   18 1   
    20    5   19 1   
    21    5   20 1   
    22    6   21 1   
    23    6   22 1   
    24    7   23 1   
    25    7   24 1   
    26    8   25 1   
    27   10   26 1   
    28   10   27 1   
    29   11   28 1   
    30   12   29 1   
    31   15   30 1   
    32   16   31 1   
@<TRIPOS>SUBSTRUCTURE
     1 LIG         1 TEMP              0 ****  ****    0 ROOT
