@<TRIPOS>MOLECULE
N6G
   37    39     1     0     0
SMALL
bcc


@<TRIPOS>ATOM
      1 P           6.1450    3.5230   -0.2510 P.5       1 LIG      1.343900
      2 O           6.5600    4.9520   -0.4440 O.3       1 LIG     -0.932833
      3 O1          6.4560    2.5380   -1.4950 O.3       1 LIG     -0.932833
      4 O2          4.5660    3.3010    0.0290 O.2       1 LIG     -0.557200
      5 C           4.0920    1.9800    0.2230 C.3       1 LIG      0.184400
      6 C1          2.5950    2.0310    0.4650 C.3       1 LIG      0.098100
      7 O3          1.9330    2.5740   -0.6890 O.2       1 LIG     -0.391600
      8 C2          0.6220    1.9760   -0.7840 C.3       1 LIG      0.224800
      9 N           0.4240    1.4500   -2.1360 N.a       1 LIG     -0.284000
     10 C3          1.3760    0.9030   -2.9510 C.a       1 LIG      0.523800
     11 N1          2.6800    0.7350   -2.6860 N.b       1 LIG     -0.739000
     12 C4          3.3050    0.1610   -3.7360 C.a       1 LIG      0.934900
     13 N2          4.6910   -0.0670   -3.5730 N.h       1 LIG     -0.889500
     14 N3          2.7850   -0.2270   -4.9260 N.b       1 LIG     -0.854000
     15 C5          1.4600   -0.0280   -5.1250 C.a       1 LIG      0.725200
     16 N4          0.8620   -0.4090   -6.3380 N.h       1 LIG     -0.921500
     17 C6          0.7050    0.5590   -4.1140 C.a       1 LIG     -0.305200
     18 N5         -0.6250    0.8830   -4.0210 N.c       1 LIG     -0.554100
     19 C7         -0.7610    1.4140   -2.8240 C.d       1 LIG      0.368700
     20 C8          0.5180    0.9130    0.3100 C.3       1 LIG      0.117100
     21 O4         -0.2100    1.4450    1.4150 O.h       1 LIG     -0.609800
     22 C9          1.9690    0.6630    0.6770 C.3       1 LIG      0.077100
     23 O5          2.1430    0.1970    1.9980 O.h       1 LIG     -0.638800
     24 O6          6.8430    2.7730    1.0000 O.3       1 LIG     -0.932833
     25 H           4.5790    1.5440    1.0700 H         1 LIG      0.032700
     26 H1          4.3010    1.3870   -0.6420 H         1 LIG      0.032700
     27 H2          2.4730    2.6260    1.3460 H         1 LIG      0.056700
     28 H3         -0.1610    2.6880   -0.6260 H         1 LIG      0.047700
     29 H4          5.1370    0.1900   -2.7340 H         1 LIG      0.470300
     30 H5          5.2100   -0.4820   -4.2990 H         1 LIG      0.470300
     31 H6          1.4060   -0.8230   -7.0460 H         1 LIG      0.387300
     32 H7         -0.1010   -0.2620   -6.4800 H         1 LIG      0.387300
     33 H8         -1.6560    1.7630   -2.4470 H         1 LIG      0.045800
     34 H9          0.0100    0.0200    0.0120 H         1 LIG      0.090700
     35 H10         0.2160    2.2610    1.7200 H         1 LIG      0.414000
     36 H11         2.4140   -0.1140    0.0910 H         1 LIG      0.082700
     37 H12         1.7670    0.8400    2.6200 H         1 LIG      0.427000
@<TRIPOS>BOND
     1    1    2 1   
     2    1    3 1   
     3    1    4 1   
     4    1   24 1   
     5    4    5 1   
     6    5    6 1   
     7    6    7 1   
     8    6   22 1   
     9    7    8 1   
    10    8    9 1   
    11    8   20 1   
    12    9   10 1   
    13    9   19 1   
    14   10   11 ar  
    15   10   17 ar  
    16   11   12 ar  
    17   12   13 1   
    18   12   14 ar  
    19   14   15 ar  
    20   15   16 1   
    21   15   17 ar  
    22   17   18 1   
    23   18   19 2   
    24   20   21 1   
    25   20   22 1   
    26   22   23 1   
    27    5   25 1   
    28    5   26 1   
    29    6   27 1   
    30    8   28 1   
    31   13   29 1   
    32   13   30 1   
    33   16   31 1   
    34   16   32 1   
    35   19   33 1   
    36   20   34 1   
    37   21   35 1   
    38   22   36 1   
    39   23   37 1   
@<TRIPOS>SUBSTRUCTURE
     1 LIG         1 TEMP              0 ****  ****    0 ROOT
