@<TRIPOS>MOLECULE
BNL
   22    23     1     0     0
SMALL
bcc


@<TRIPOS>ATOM
      1 C           1.4410    1.2050    0.0000 ca        1 LIG     -0.121000
      2 C1          0.7420   -0.0000   -0.0000 cp        1 LIG     -0.027000
      3 C2          1.4410   -1.2050   -0.0000 ca        1 LIG     -0.121000
      4 C3          2.8210   -1.1990   -0.0000 ca        1 LIG     -0.131000
      5 C4          3.5100    0.0000    0.0000 ca        1 LIG     -0.126000
      6 C5          2.8210    1.1990    0.0000 ca        1 LIG     -0.131000
      7 C6         -2.8210    1.1990    0.0000 ca        1 LIG     -0.131000
      8 C7         -3.5100    0.0000    0.0000 ca        1 LIG     -0.126000
      9 C8         -2.8210   -1.1990   -0.0000 ca        1 LIG     -0.131000
     10 C9         -1.4410   -1.2050   -0.0000 ca        1 LIG     -0.121000
     11 C10        -0.7420   -0.0000    0.0000 cp        1 LIG     -0.027000
     12 C11        -1.4410    1.2050    0.0000 ca        1 LIG     -0.121000
     13 H           0.9280    2.1000    0.0000 ha        1 LIG      0.131000
     14 H1          0.9280   -2.1000    0.0000 ha        1 LIG      0.131000
     15 H2          3.3400   -2.0910    0.0000 ha        1 LIG      0.131000
     16 H3          4.5420    0.0000    0.0000 ha        1 LIG      0.132000
     17 H4          3.3400    2.0910    0.0000 ha        1 LIG      0.131000
     18 H5         -3.3400    2.0910    0.0000 ha        1 LIG      0.131000
     19 H6         -4.5420    0.0000    0.0000 ha        1 LIG      0.132000
     20 H7         -3.3400   -2.0910    0.0000 ha        1 LIG      0.131000
     21 H8         -0.9280   -2.1000    0.0000 ha        1 LIG      0.131000
     22 H9         -0.9280    2.1000    0.0000 ha        1 LIG      0.131000
@<TRIPOS>BOND
     1    1    2 ar  
     2    1    6 ar  
     3    2    3 ar  
     4    2   11 1   
     5    3    4 ar  
     6    4    5 ar  
     7    5    6 ar  
     8    7    8 ar  
     9    7   12 ar  
    10    8    9 ar  
    11    9   10 ar  
    12   10   11 ar  
    13   11   12 ar  
    14    1   13 1   
    15    3   14 1   
    16    4   15 1   
    17    5   16 1   
    18    6   17 1   
    19    7   18 1   
    20    8   19 1   
    21    9   20 1   
    22   10   21 1   
    23   12   22 1   
@<TRIPOS>SUBSTRUCTURE
     1 LIG         1 TEMP              0 ****  ****    0 ROOT
