@<TRIPOS>MOLECULE
SKD
   36    37     1     0     0
SMALL
bcc


@<TRIPOS>ATOM
      1 C          -2.7910   -0.2230   -0.8430 C.        1 LIG      0.955600
      2 C1         -1.4040    0.0670   -0.3300 C.3       1 LIG      0.198600
      3 C2         -1.4400    1.0380    0.8600 C.3       1 LIG     -0.148400
      4 C3         -0.0040    1.4340    1.2190 C.3       1 LIG      0.137100
      5 C4          0.8420    0.1670    1.3890 C.3       1 LIG      0.049700
      6 C5          0.6690   -0.7120    0.1410 C.3       1 LIG      0.081100
      7 C6          0.7720    0.2070   -1.0990 C.3       1 LIG      0.089100
      8 C7          1.3150   -0.5740   -2.2970 C.3       1 LIG      0.086100
      9 C8          1.3420    0.3330   -3.5280 C.3       1 LIG      0.105400
     10 C9          0.9530   -0.3140    3.7750 C.        1 LIG      0.654100
     11 C10         0.4920   -1.0700    4.9950 C.3       1 LIG     -0.175100
     12 N           0.3940   -0.5670    2.5750 N.        1 LIG     -0.547900
     13 O          -3.0820    0.0440   -1.9840 O.3       1 LIG     -0.794300
     14 O1         -3.7030   -0.7820   -0.0310 O.3       1 LIG     -0.794300
     15 O2          0.5450    2.2380    0.1730 O.h       1 LIG     -0.622800
     16 O3         -0.7220   -1.1290    0.1050 O.2       1 LIG     -0.406600
     17 O4         -0.5750    0.6430   -1.3560 O.2       1 LIG     -0.428600
     18 O5          2.6400   -1.0260   -2.0090 O.h       1 LIG     -0.611800
     19 O6          1.8500   -0.3960   -4.6470 O.h       1 LIG     -0.609800
     20 O7          1.8260    0.5210    3.8740 O.3       1 LIG     -0.630100
     21 H          -1.9020    0.5610    1.6990 H         1 LIG      0.080200
     22 H1         -2.0030    1.9100    0.6000 H         1 LIG      0.080200
     23 H2         -0.0030    1.9920    2.1320 H         1 LIG      0.060700
     24 H3          1.8720    0.4290    1.5100 H         1 LIG      0.093700
     25 H4          1.3780   -1.5130    0.1540 H         1 LIG      0.096700
     26 H5          1.4370    1.0290   -0.9350 H         1 LIG      0.053700
     27 H6          0.6840   -1.4170   -2.4890 H         1 LIG      0.122700
     28 H7          1.9720    1.1760   -3.3360 H         1 LIG      0.057200
     29 H8          0.3500    0.6710   -3.7440 H         1 LIG      0.057200
     30 H9         -0.2780   -1.7590    4.7180 H         1 LIG      0.059700
     31 H10         0.1100   -0.3810    5.7180 H         1 LIG      0.059700
     32 H11         1.3170   -1.6070    5.4150 H         1 LIG      0.059700
     33 H12        -0.3150   -1.2450    2.4950 H         1 LIG      0.320500
     34 H13         0.5450    1.7340   -0.6560 H         1 LIG      0.418000
     35 H14         3.2120   -0.2620   -1.8350 H         1 LIG      0.391000
     36 H15         2.7490   -0.7020   -4.4520 H         1 LIG      0.402000
@<TRIPOS>BOND
     1    1    2 1   
     2    1   13 1   
     3    1   14 1   
     4    2    3 1   
     5    2   16 1   
     6    2   17 1   
     7    3    4 1   
     8    4    5 1   
     9    4   15 1   
    10    5    6 1   
    11    5   12 1   
    12    6    7 1   
    13    6   16 1   
    14    7    8 1   
    15    7   17 1   
    16    8    9 1   
    17    8   18 1   
    18    9   19 1   
    19   10   11 1   
    20   10   12 1   
    21   10   20 2   
    22    3   21 1   
    23    3   22 1   
    24    4   23 1   
    25    5   24 1   
    26    6   25 1   
    27    7   26 1   
    28    8   27 1   
    29    9   28 1   
    30    9   29 1   
    31   11   30 1   
    32   11   31 1   
    33   11   32 1   
    34   12   33 1   
    35   15   34 1   
    36   18   35 1   
    37   19   36 1   
@<TRIPOS>SUBSTRUCTURE
     1 LIG         1 TEMP              0 ****  ****    0 ROOT
