@<TRIPOS>MOLECULE
NBO
   33    34     1     0     0
SMALL
bcc


@<TRIPOS>ATOM
      1 C           5.8280    0.7550   -1.4080 c3        1 LIG     -0.205100
      2 O           5.3380    0.2560    0.8420 o         1 LIG     -0.531100
      3 C1          4.9040    0.3790   -0.2780 c         1 LIG      0.563100
      4 C2          3.4380    0.1560   -0.5470 c3        1 LIG     -0.180400
      5 C3          2.7300   -0.2120    0.7590 c3        1 LIG     -0.031100
      6 C4          0.8140   -1.7090    0.1550 ca        1 LIG     -0.117000
      7 C5          1.2640   -0.4340    0.4900 ca        1 LIG     -0.089300
      8 C6         -5.8410    0.8970   -0.3060 c3        1 LIG      0.114700
      9 C7          0.4000    0.6140    0.5800 ca        1 LIG     -0.105000
     10 O1         -4.9820   -0.2410   -0.4150 os        1 LIG     -0.327900
     11 C8         -0.9670    0.4100    0.3300 ca        1 LIG     -0.064000
     12 C9         -1.8890    1.4690    0.4120 ca        1 LIG     -0.085000
     13 C10        -3.2060    1.2380    0.1640 ca        1 LIG     -0.184000
     14 C11        -3.6600   -0.0410   -0.1730 ca        1 LIG      0.122100
     15 C12        -2.7930   -1.0920   -0.2620 ca        1 LIG     -0.158000
     16 C13        -1.4260   -0.8870   -0.0120 ca        1 LIG     -0.006000
     17 C14        -0.5030   -1.9440   -0.0940 ca        1 LIG     -0.123000
     18 H           6.8230    0.8710   -1.0320 hc        1 LIG      0.063700
     19 H1          5.5020    1.6760   -1.8440 hc        1 LIG      0.063700
     20 H2          5.8150   -0.0150   -2.1510 hc        1 LIG      0.063700
     21 H3          3.3220   -0.6400   -1.2520 hc        1 LIG      0.068200
     22 H4          3.0080    1.0510   -0.9460 hc        1 LIG      0.068200
     23 H5          2.8470    0.5840    1.4650 hc        1 LIG      0.062700
     24 H6          3.1590   -1.1070    1.1570 hc        1 LIG      0.062700
     25 H7          1.4890   -2.4870    0.0950 ha        1 LIG      0.132000
     26 H8         -6.8480    0.6050   -0.5200 h1        1 LIG      0.043700
     27 H9         -5.5310    1.6460   -1.0040 h1        1 LIG      0.043700
     28 H10        -5.7870    1.2910    0.6870 h1        1 LIG      0.043700
     29 H11         0.7470    1.5530    0.8310 ha        1 LIG      0.132000
     30 H12        -1.5670    2.4180    0.6590 ha        1 LIG      0.134000
     31 H13        -3.8800    2.0170    0.2250 ha        1 LIG      0.138000
     32 H14        -3.1400   -2.0310   -0.5110 ha        1 LIG      0.150000
     33 H15        -0.8230   -2.8930   -0.3420 ha        1 LIG      0.135000
@<TRIPOS>BOND
     1    1    3 1   
     2    2    3 2   
     3    3    4 1   
     4    4    5 1   
     5    5    7 1   
     6    6    7 ar  
     7    6   17 ar  
     8    7    9 ar  
     9    8   10 1   
    10    9   11 ar  
    11   10   14 1   
    12   11   12 ar  
    13   11   16 ar  
    14   12   13 ar  
    15   13   14 ar  
    16   14   15 ar  
    17   15   16 ar  
    18   16   17 ar  
    19    1   18 1   
    20    1   19 1   
    21    1   20 1   
    22    4   21 1   
    23    4   22 1   
    24    5   23 1   
    25    5   24 1   
    26    6   25 1   
    27    8   26 1   
    28    8   27 1   
    29    8   28 1   
    30    9   29 1   
    31   12   30 1   
    32   13   31 1   
    33   15   32 1   
    34   17   33 1   
@<TRIPOS>SUBSTRUCTURE
     1 LIG         1 TEMP              0 ****  ****    0 ROOT
