@<TRIPOS>MOLECULE
SMB
   16    15     1     0     0
SMALL
bcc


@<TRIPOS>ATOM
      1 C           2.7160    0.2320    0.2650 c3        1 LIG     -0.085100
      2 C1          1.3140    0.7270   -0.0950 c3        1 LIG     -0.069400
      3 C2          0.2810   -0.3250    0.3150 c3        1 LIG     -0.186700
      4 C3          0.4880   -1.5940   -0.5150 c3        1 LIG     -0.064100
      5 C4         -1.1060    0.2130    0.0740 c         1 LIG      0.912600
      6 O          -2.1780   -0.5420    0.3630 o         1 LIG     -0.849800
      7 O1         -1.2540    1.3230   -0.3800 o         1 LIG     -0.849800
      8 H           3.4380    0.9670   -0.0220 hc        1 LIG      0.009700
      9 H1          2.9150   -0.6830   -0.2520 hc        1 LIG      0.009700
     10 H2          2.7760    0.0660    1.3200 hc        1 LIG      0.009700
     11 H3          1.2540    0.8930   -1.1500 hc        1 LIG      0.045700
     12 H4          1.1150    1.6430    0.4220 hc        1 LIG      0.045700
     13 H5          0.3990   -0.5550    1.3530 hc        1 LIG      0.027700
     14 H6          0.3700   -1.3640   -1.5530 hc        1 LIG      0.014700
     15 H7         -0.2340   -2.3290   -0.2280 hc        1 LIG      0.014700
     16 H8          1.4730   -1.9760   -0.3440 hc        1 LIG      0.014700
@<TRIPOS>BOND
     1    1    2 1   
     2    2    3 1   
     3    3    4 1   
     4    3    5 1   
     5    5    6 1   
     6    5    7 1   
     7    1    8 1   
     8    1    9 1   
     9    1   10 1   
    10    2   11 1   
    11    2   12 1   
    12    3   13 1   
    13    4   14 1   
    14    4   15 1   
    15    4   16 1   
@<TRIPOS>SUBSTRUCTURE
     1 LIG         1 TEMP              0 ****  ****    0 ROOT
