@<TRIPOS>MOLECULE
G3A
   74    79     1     0     0
SMALL
bcc


@<TRIPOS>ATOM
      1 O           4.5560    4.5670    8.7630 o         1 LIG     -0.691500
      2 C           3.8500    4.5120    7.7640 c         1 LIG      0.649000
      3 N           3.7920    3.4350    6.8690 n         1 LIG     -0.489400
      4 C1          2.9750    3.3750    5.7150 cc        1 LIG      0.742800
      5 N1          3.0790    2.2210    4.9830 nh        1 LIG     -0.865800
      6 N2          2.1690    4.3540    5.3650 nd        1 LIG     -0.665100
      7 C2          2.9610    5.5640    7.3560 cc        1 LIG      0.070800
      8 C3          2.2110    5.4030    6.2160 cd        1 LIG      0.189800
      9 N3          2.7310    6.7670    7.9550 nc        1 LIG     -0.589000
     10 C4          1.8360    7.3430    7.1780 cd        1 LIG      0.327400
     11 N4          1.4870    6.5550    6.1070 na        1 LIG     -0.248900
     12 C5          0.5250    6.9010    5.0620 c3        1 LIG      0.228800
     13 O1         -0.1480    5.7100    4.6080 os        1 LIG     -0.379600
     14 C6          1.1510    7.5300    3.8270 c3        1 LIG      0.056100
     15 O2          1.3420    8.9220    3.9850 oh        1 LIG     -0.617800
     16 C7          0.1260    7.1890    2.7630 c3        1 LIG      0.077100
     17 O3         -0.9890    8.0730    2.8740 oh        1 LIG     -0.619800
     18 C8         -0.3140    5.7870    3.1740 c3        1 LIG      0.077100
     19 C9          0.5240    4.6900    2.5330 c3        1 LIG      0.212400
     20 O4          0.0530    3.4300    2.9780 os        1 LIG     -0.574200
     21 P           0.2020    2.1570    1.9920 p5        1 LIG      1.591800
     22 O5         -0.4890    2.6490    0.6140 o         1 LIG     -0.881000
     23 O6         -0.3180    0.8550    2.5280 o         1 LIG     -0.881000
     24 O7          1.7810    2.1910    1.6520 os        1 LIG     -0.827800
     25 P1          2.6910    1.3280    0.6360 p5        1 LIG      1.761800
     26 O8          2.1360    1.7550   -0.8220 o         1 LIG     -0.926500
     27 O9          2.6920   -0.1500    0.8990 o         1 LIG     -0.926500
     28 O10         4.1380    2.0400    0.7100 os        1 LIG     -0.829800
     29 P2          5.4880    1.7850   -0.1410 p5        1 LIG      1.600800
     30 O11         5.3790    1.9850   -1.6250 o         1 LIG     -0.880000
     31 O12         5.9490    0.3010    0.3070 o         1 LIG     -0.880000
     32 O13         6.5410    2.7490    0.6220 os        1 LIG     -0.579200
     33 C10         6.6890    2.6100    2.0240 c3        1 LIG      0.192400
     34 C11         7.7220    3.6090    2.5140 c3        1 LIG      0.052100
     35 C12         7.9530    3.5550    4.0140 c3        1 LIG      0.069100
     36 O14         8.8280    2.5090    4.3790 oh        1 LIG     -0.631800
     37 C13         8.5080    4.9360    4.3050 c3        1 LIG      0.120100
     38 O15         9.9130    4.9900    4.0640 oh        1 LIG     -0.594800
     39 O16         7.2660    4.9470    2.2510 os        1 LIG     -0.391600
     40 C14         7.7870    5.8150    3.2810 c3        1 LIG      0.217800
     41 N5          6.6950    6.6050    3.8510 na        1 LIG     -0.273000
     42 C15         6.7660    7.8890    4.3150 ca        1 LIG      0.431800
     43 N6          7.8440    8.6880    4.3480 nb        1 LIG     -0.713000
     44 C16         7.5250    9.8880    4.8790 ca        1 LIG      0.638900
     45 N7          6.3280   10.3230    5.3400 nb        1 LIG     -0.807000
     46 C17         5.3990    6.1910    4.0180 cc        1 LIG      0.469700
     47 N8          4.6430    7.1240    4.5570 nd        1 LIG     -0.590100
     48 C18         5.4850    8.1910    4.7480 ca        1 LIG     -0.193200
     49 C19         5.2830    9.4620    5.2760 ca        1 LIG      0.694200
     50 N9          4.0150    9.8540    5.7390 nh        1 LIG     -0.911500
     51 H           4.3660    2.6580    7.0580 hn        1 LIG      0.398500
     52 H1          3.6920    1.5080    5.2730 hn        1 LIG      0.469800
     53 H2          2.5400    2.1050    4.1670 hn        1 LIG      0.469800
     54 H3          1.4420    8.2800    7.3540 h5        1 LIG      0.041100
     55 H4         -0.1350    7.6120    5.5130 h2        1 LIG      0.051700
     56 H5          2.1330    7.1730    3.5980 h1        1 LIG      0.124700
     57 H6          0.4940    9.3420    4.1980 ho        1 LIG      0.405000
     58 H7          0.5010    7.2600    1.7630 h1        1 LIG      0.119700
     59 H8         -1.3490    8.0280    3.7730 ho        1 LIG      0.399000
     60 H9         -1.3240    5.6340    2.8550 h1        1 LIG      0.087700
     61 H10         1.5490    4.8100    2.8160 h1        1 LIG      0.036200
     62 H11         0.4440    4.7500    1.4680 h1        1 LIG      0.036200
     63 H12         7.0140    1.6170    2.2540 h1        1 LIG      0.038200
     64 H13         5.7520    2.7940    2.5060 h1        1 LIG      0.038200
     65 H14         8.6250    3.3560    1.9990 h1        1 LIG      0.123700
     66 H15         7.0720    3.3380    4.5820 h1        1 LIG      0.120700
     67 H16         9.6710    2.6150    3.9110 ho        1 LIG      0.424000
     68 H17         8.3620    5.2310    5.3230 h1        1 LIG      0.111700
     69 H18        10.0940    4.7290    3.1470 ho        1 LIG      0.411000
     70 H19         8.4930    6.5210    2.8970 h2        1 LIG      0.077700
     71 H20         8.3000   10.5670    4.9420 h5        1 LIG      0.021100
     72 H21         5.0550    5.2550    3.7520 h5        1 LIG      0.160800
     73 H22         3.8840   10.7560    6.1110 hn        1 LIG      0.410800
     74 H23         3.2580    9.2260    5.6920 hn        1 LIG      0.410800
@<TRIPOS>BOND
     1    1    2 2   
     2    2    3 1   
     3    2    7 1   
     4    3    4 1   
     5    4    5 1   
     6    4    6 2   
     7    6    8 1   
     8    7    8 ar  
     9    7    9 ar  
    10    8   11 ar  
    11    9   10 ar  
    12   10   11 ar  
    13   11   12 1   
    14   12   14 1   
    15   12   13 1   
    16   13   18 1   
    17   14   15 1   
    18   14   16 1   
    19   16   17 1   
    20   16   18 1   
    21   18   19 1   
    22   19   20 1   
    23   20   21 1   
    24   21   23 1   
    25   21   24 1   
    26   21   22 1   
    27   24   25 1   
    28   25   28 1   
    29   25   27 1   
    30   25   26 1   
    31   28   29 1   
    32   29   30 1   
    33   29   32 1   
    34   29   31 1   
    35   32   33 1   
    36   33   34 1   
    37   34   39 1   
    38   34   35 1   
    39   35   37 1   
    40   35   36 1   
    41   37   40 1   
    42   37   38 1   
    43   39   40 1   
    44   40   41 1   
    45   41   42 1   
    46   41   46 1   
    47   42   48 ar  
    48   42   43 ar  
    49   43   44 ar  
    50   44   45 ar  
    51   45   49 ar  
    52   46   47 2   
    53   47   48 1   
    54   48   49 ar  
    55   49   50 1   
    56    3   51 1   
    57    5   52 1   
    58    5   53 1   
    59   10   54 1   
    60   12   55 1   
    61   14   56 1   
    62   15   57 1   
    63   16   58 1   
    64   17   59 1   
    65   18   60 1   
    66   19   61 1   
    67   19   62 1   
    68   33   63 1   
    69   33   64 1   
    70   34   65 1   
    71   35   66 1   
    72   36   67 1   
    73   37   68 1   
    74   38   69 1   
    75   40   70 1   
    76   44   71 1   
    77   46   72 1   
    78   50   73 1   
    79   50   74 1   
@<TRIPOS>SUBSTRUCTURE
     1 LIG         1 TEMP              0 ****  ****    0 ROOT
