@<TRIPOS>MOLECULE
UDH
   58    59     1     0     0
SMALL
bcc


@<TRIPOS>ATOM
      1 N           5.2680   -1.3220    0.0210 N.        1 LIG     -0.363000
      2 C           5.8330   -2.5070    0.3140 C.        1 LIG      0.808500
      3 N1          6.4500   -3.2330   -0.6360 N.        1 LIG     -0.590500
      4 C1          6.5120   -2.7800   -1.9050 C.        1 LIG      0.717700
      5 C2          5.9220   -1.5340   -2.2270 C.c       1 LIG     -0.341200
      6 C3          5.3090   -0.8260   -1.2540 C.d       1 LIG      0.056600
      7 O           5.7850   -2.9280    1.4540 O.3       1 LIG     -0.666500
      8 O1          7.0700   -3.4360   -2.7650 O.3       1 LIG     -0.641500
      9 C4          4.5990   -0.5560    1.0760 C.3       1 LIG      0.258500
     10 C5          5.3450    0.7760    1.3410 C.3       1 LIG      0.076100
     11 O2          6.4020    0.5890    2.2850 O.h       1 LIG     -0.575800
     12 C6          4.2240    1.6630    1.9360 C.3       1 LIG      0.094100
     13 C7          2.9210    0.9920    1.4620 C.3       1 LIG      0.087100
     14 O3          3.2900   -0.1280    0.6410 O.2       1 LIG     -0.437600
     15 O4          4.2940    1.6670    3.3630 O.h       1 LIG     -0.599800
     16 C8          2.0920    1.9850    0.6450 C.3       1 LIG      0.182400
     17 O5          0.8350    1.3930    0.3090 O.2       1 LIG     -0.585200
     18 P          -0.2920    2.1570   -0.5500 P.5       1 LIG      1.583800
     19 O6         -0.6160    3.4480    0.0980 O.3       1 LIG     -0.833000
     20 O7          0.2580    2.4270   -2.0380 O.3       1 LIG     -0.833000
     21 O8         -1.6190    1.2470   -0.6240 O.2       1 LIG     -0.821800
     22 P1         -3.1480    1.5310   -1.0410 P.5       1 LIG      1.681800
     23 O9         -3.5650    2.8510   -0.5160 O.3       1 LIG     -0.659500
     24 O10        -4.0940    0.3840   -0.4240 O.2       1 LIG     -0.621200
     25 O11        -3.2760    1.5270   -2.6460 O.3       1 LIG     -0.659500
     26 C9         -5.5190    0.4110   -0.5280 C.3       1 LIG      0.190400
     27 C10        -6.1040   -0.8220    0.1630 C.3       1 LIG     -0.095400
     28 C11        -7.6300   -0.7940    0.0510 C.3       1 LIG     -0.079400
     29 C12        -8.2150   -2.0270    0.7420 C.3       1 LIG     -0.104400
     30 C13        -9.7410   -1.9980    0.6300 C.3       1 LIG      0.086600
     31 C14       -10.3260   -3.2320    1.3200 C.3       1 LIG     -0.577200
     32 N2        -11.7910   -3.2040    1.2130 N.4       1 LIG     -0.630600
     33 H           6.8580   -4.0980   -0.4040 H         1 LIG      0.339500
     34 H1          5.9600   -1.1720   -3.1920 H         1 LIG      0.182000
     35 H2          4.8740    0.0840   -1.4710 H         1 LIG      0.251000
     36 H3          4.5670   -1.1950    1.9340 H         1 LIG      0.103700
     37 H4          5.8090    1.1920    0.4710 H         1 LIG      0.147700
     38 H5          6.0420    0.2110    3.1030 H         1 LIG      0.407000
     39 H6          4.2980    2.6840    1.6250 H         1 LIG      0.132700
     40 H7          2.3340    0.6720    2.2970 H         1 LIG      0.075700
     41 H8          4.2310    0.7570    3.6920 H         1 LIG      0.399000
     42 H9          2.6190    2.2370   -0.2520 H         1 LIG      0.038700
     43 H10         1.9260    2.8710    1.2220 H         1 LIG      0.038700
     44 H11        -5.8010    0.4090   -1.5600 H         1 LIG      0.049200
     45 H12        -5.8940    1.2960   -0.0570 H         1 LIG      0.049200
     46 H13        -5.8220   -0.8200    1.1950 H         1 LIG      0.045200
     47 H14        -5.7280   -1.7060   -0.3080 H         1 LIG      0.045200
     48 H15        -7.9120   -0.7960   -0.9810 H         1 LIG      0.029700
     49 H16        -8.0060    0.0900    0.5220 H         1 LIG      0.029700
     50 H17        -7.9330   -2.0250    1.7740 H         1 LIG      0.031700
     51 H18        -7.8390   -2.9120    0.2720 H         1 LIG      0.031700
     52 H19       -10.0230   -1.9990   -0.4020 H         1 LIG     -0.002800
     53 H20       -10.1170   -1.1140    1.1010 H         1 LIG     -0.002800
     54 H21       -10.0440   -3.2310    2.3520 H         1 LIG      0.158200
     55 H22        -9.9510   -4.1160    0.8490 H         1 LIG      0.158200
     56 H23       -12.1490   -2.3610    1.6630 H         1 LIG      0.384133
     57 H24       -12.1810   -4.0270    1.6730 H         1 LIG      0.384133
     58 H25       -12.0600   -3.2050    0.2290 H         1 LIG      0.384133
@<TRIPOS>BOND
     1    1    2 1   
     2    1    6 1   
     3    1    9 1   
     4    2    3 1   
     5    2    7 2   
     6    3    4 1   
     7    4    5 1   
     8    4    8 2   
     9    5    6 2   
    10    9   10 1   
    11    9   14 1   
    12   10   11 1   
    13   10   12 1   
    14   12   13 1   
    15   12   15 1   
    16   13   14 1   
    17   13   16 1   
    18   16   17 1   
    19   17   18 1   
    20   18   19 1   
    21   18   20 1   
    22   18   21 1   
    23   21   22 1   
    24   22   23 1   
    25   22   24 1   
    26   22   25 1   
    27   24   26 1   
    28   26   27 1   
    29   27   28 1   
    30   28   29 1   
    31   29   30 1   
    32   30   31 1   
    33   31   32 1   
    34    3   33 1   
    35    5   34 1   
    36    6   35 1   
    37    9   36 1   
    38   10   37 1   
    39   11   38 1   
    40   12   39 1   
    41   13   40 1   
    42   15   41 1   
    43   16   42 1   
    44   16   43 1   
    45   26   44 1   
    46   26   45 1   
    47   27   46 1   
    48   27   47 1   
    49   28   48 1   
    50   28   49 1   
    51   29   50 1   
    52   29   51 1   
    53   30   52 1   
    54   30   53 1   
    55   31   54 1   
    56   31   55 1   
    57   32   56 1   
    58   32   57 1   
    59   32   58 1   
@<TRIPOS>SUBSTRUCTURE
     1 LIG         1 TEMP              0 ****  ****    0 ROOT
