@<TRIPOS>MOLECULE
MAL
   45    46     1     0     0
SMALL
bcc


@<TRIPOS>ATOM
      1 C          -1.0730    0.6600   -0.9300 c3        1 LIG      0.297900
      2 C1         -1.9330    0.0520   -2.0400 c3        1 LIG      0.103100
      3 C2         -1.0540   -0.8430   -2.9190 c3        1 LIG      0.073100
      4 C3          0.1490   -0.0250   -3.4010 c3        1 LIG      0.087100
      5 C4          0.8530    0.5870   -2.1880 c3        1 LIG      0.068100
      6 C5          2.0770    1.3770   -2.6560 c3        1 LIG      0.140400
      7 O          -0.4860   -0.3870   -0.1570 os        1 LIG     -0.457600
      8 O1         -2.9820   -0.7260   -1.4600 oh        1 LIG     -0.570800
      9 O2         -1.8080   -1.3000   -4.0440 oh        1 LIG     -0.569800
     10 O3          1.0580   -0.8780   -4.1000 oh        1 LIG     -0.576800
     11 O4         -0.0410    1.4610   -1.5030 os        1 LIG     -0.439600
     12 O5          2.7360    1.9480   -1.5240 oh        1 LIG     -0.595800
     13 C6          0.4430   -0.1490    3.8470 c3        1 LIG      0.306900
     14 C7         -0.7110    0.7530    3.4080 c3        1 LIG      0.047100
     15 C8         -1.2310    0.2730    2.0480 c3        1 LIG      0.085100
     16 C9         -0.0520    0.1980    1.0710 c3        1 LIG      0.130100
     17 C10         1.0530   -0.6610    1.6860 c3        1 LIG      0.091100
     18 C11         2.2220   -0.7670    0.7040 c3        1 LIG      0.145400
     19 O6         -0.0150   -1.5000    3.9300 oh        1 LIG     -0.607800
     20 O7         -1.7630    0.6900    4.3720 oh        1 LIG     -0.587800
     21 O8         -2.2070    1.1920    1.5530 oh        1 LIG     -0.599800
     22 O9          1.5070   -0.0680    2.9010 os        1 LIG     -0.432600
     23 O10         3.2310   -1.6160    1.2550 oh        1 LIG     -0.592800
     24 H          -1.6870    1.2710   -0.3020 h2        1 LIG      0.127700
     25 H1         -2.3610    0.8320   -2.6340 h1        1 LIG      0.091700
     26 H2         -0.7180   -1.6900   -2.3590 h1        1 LIG      0.091700
     27 H3         -0.1820    0.7520   -4.0580 h1        1 LIG      0.085700
     28 H4          1.1610   -0.1950   -1.5260 h1        1 LIG      0.060700
     29 H5          1.7660    2.1570   -3.3190 h1        1 LIG      0.064700
     30 H6          2.7500    0.7220   -3.1680 h1        1 LIG      0.064700
     31 H7         -2.5980   -1.4350   -0.9200 ho        1 LIG      0.416000
     32 H8         -2.1170   -0.5370   -4.5580 ho        1 LIG      0.408000
     33 H9          1.3600   -1.5840   -3.5070 ho        1 LIG      0.411000
     34 H10         2.1250    2.5420   -1.0600 ho        1 LIG      0.409000
     35 H11         0.7960    0.1720    4.8050 h2        1 LIG      0.127700
     36 H12        -0.3680    1.7640    3.3280 h1        1 LIG      0.106700
     37 H13        -1.6830   -0.6910    2.1510 h1        1 LIG      0.047700
     38 H14         0.3220    1.1820    0.8790 h1        1 LIG      0.086700
     39 H15         0.6670   -1.6370    1.8920 h1        1 LIG      0.060700
     40 H16         2.6310    0.2060    0.5300 h1        1 LIG      0.062200
     41 H17         1.8750   -1.1790   -0.2210 h1        1 LIG      0.062200
     42 H18        -0.3340   -1.7870    3.0600 ho        1 LIG      0.409000
     43 H19        -2.0770   -0.2250    4.4480 ho        1 LIG      0.418000
     44 H20        -1.8050    2.0700    1.4570 ho        1 LIG      0.427000
     45 H21         3.5450   -1.2430    2.0930 ho        1 LIG      0.417000
@<TRIPOS>BOND
     1    1    2 1   
     2    1    7 1   
     3    1   11 1   
     4    2    3 1   
     5    2    8 1   
     6    3    4 1   
     7    3    9 1   
     8    4    5 1   
     9    4   10 1   
    10    5    6 1   
    11    5   11 1   
    12    6   12 1   
    13    7   16 1   
    14   13   14 1   
    15   13   19 1   
    16   13   22 1   
    17   14   15 1   
    18   14   20 1   
    19   15   16 1   
    20   15   21 1   
    21   16   17 1   
    22   17   18 1   
    23   17   22 1   
    24   18   23 1   
    25    1   24 1   
    26    2   25 1   
    27    3   26 1   
    28    4   27 1   
    29    5   28 1   
    30    6   29 1   
    31    6   30 1   
    32    8   31 1   
    33    9   32 1   
    34   10   33 1   
    35   12   34 1   
    36   13   35 1   
    37   14   36 1   
    38   15   37 1   
    39   16   38 1   
    40   17   39 1   
    41   18   40 1   
    42   18   41 1   
    43   19   42 1   
    44   20   43 1   
    45   21   44 1   
    46   23   45 1   
@<TRIPOS>SUBSTRUCTURE
     1 LIG         1 TEMP              0 ****  ****    0 ROOT
