@<TRIPOS>MOLECULE
36X
   30    32     1     0     0
SMALL
bcc


@<TRIPOS>ATOM
      1 N           0.0230    2.8410    0.2730 N.2       1 LIG     -0.816100
      2 C           0.0060    1.5290    0.1110 C.c       1 LIG      0.573900
      3 C1         -1.2320    0.7240    0.0710 C.c       1 LIG     -0.274800
      4 C2         -2.6490    1.2140    0.0300 C.3       1 LIG     -0.020700
      5 C3         -3.4800   -0.0100   -0.4230 C.3       1 LIG     -0.078900
      6 C4         -2.5850   -1.1910    0.0210 C.3       1 LIG     -0.040200
      7 C5         -1.1880   -0.6300    0.0650 C.d       1 LIG      0.103300
      8 C6          1.2230    0.7070   -0.0560 C.c       1 LIG     -0.274800
      9 C7          1.1610   -0.6460   -0.0560 C.d       1 LIG      0.103300
     10 N1         -0.0140   -1.3440    0.0990 N.a       1 LIG     -0.495200
     11 C8         -0.0150   -2.7960    0.2860 C.3       1 LIG      0.204100
     12 C9          2.5390   -1.2240   -0.2480 C.3       1 LIG     -0.040200
     13 C10         3.5110   -0.0610    0.0570 C.3       1 LIG     -0.078900
     14 C11         2.6350    1.1800   -0.2400 C.3       1 LIG     -0.020700
     15 H          -0.8220    3.3350    0.3790 H         1 LIG      0.372400
     16 H1         -2.7500    2.0170   -0.6700 H         1 LIG      0.057700
     17 H2         -2.9720    1.5920    0.9770 H         1 LIG      0.057700
     18 H3         -3.6260   -0.0100   -1.4830 H         1 LIG      0.046950
     19 H4         -4.4660   -0.0380   -0.0090 H         1 LIG      0.046950
     20 H5         -2.6450   -1.9940   -0.6840 H         1 LIG      0.055200
     21 H6         -2.8870   -1.5890    0.9670 H         1 LIG      0.055200
     22 H7         -1.0220   -3.1420    0.3860 H         1 LIG      0.048033
     23 H8          0.5360   -3.0420    1.1690 H         1 LIG      0.048033
     24 H9          0.4400   -3.2650   -0.5610 H         1 LIG      0.048033
     25 H10         2.6660   -1.5650   -1.2540 H         1 LIG      0.055200
     26 H11         2.7120   -2.0670    0.3880 H         1 LIG      0.055200
     27 H12         4.3680   -0.0930   -0.5830 H         1 LIG      0.046950
     28 H13         3.9070   -0.0800    1.0510 H         1 LIG      0.046950
     29 H14         2.8590    1.9720    0.4440 H         1 LIG      0.057700
     30 H15         2.8050    1.5680   -1.2220 H         1 LIG      0.057700
@<TRIPOS>BOND
     1    1    2 2   
     2    2    3 1   
     3    2    8 1   
     4    3    7 2   
     5    4    3 1   
     6    4    5 1   
     7    5    6 1   
     8    7    6 1   
     9    7   10 1   
    10    8    9 2   
    11    9   10 1   
    12    9   12 1   
    13   10   11 1   
    14   13   12 1   
    15   14    8 1   
    16   14   13 1   
    17    1   15 1   
    18    4   16 1   
    19    4   17 1   
    20    5   18 1   
    21    5   19 1   
    22    6   20 1   
    23    6   21 1   
    24   11   22 1   
    25   11   23 1   
    26   11   24 1   
    27   12   25 1   
    28   12   26 1   
    29   13   27 1   
    30   13   28 1   
    31   14   29 1   
    32   14   30 1   
@<TRIPOS>SUBSTRUCTURE
     1 LIG         1 TEMP              0 ****  ****    0 ROOT
