@<TRIPOS>MOLECULE
M40
   70    72     1     0     0
SMALL
bcc


@<TRIPOS>ATOM
      1 O           2.6080    0.5740    1.2140 o         1 LIG     -0.590000
      2 C           2.6740   -0.2260    0.3030 c         1 LIG      0.725100
      3 O1          3.8640   -0.7420   -0.0570 os        1 LIG     -0.450900
      4 C1          5.0280   -0.2960    0.6890 c3        1 LIG      0.193700
      5 C2          6.2600   -0.9750    0.1500 ca        1 LIG     -0.084300
      6 C3          6.9800   -0.3890   -0.8750 ca        1 LIG     -0.114500
      7 C4          8.1110   -1.0120   -1.3700 ca        1 LIG     -0.135000
      8 C5          8.5220   -2.2210   -0.8400 ca        1 LIG     -0.135000
      9 C6          7.8020   -2.8070    0.1840 ca        1 LIG     -0.135000
     10 C7          6.6740   -2.1810    0.6830 ca        1 LIG     -0.114500
     11 N           1.5530   -0.6020   -0.3460 n         1 LIG     -0.478900
     12 C8          0.2570   -0.0460    0.0490 c3        1 LIG      0.011700
     13 C9          0.0410    1.2940   -0.6570 c3        1 LIG     -0.096400
     14 C10         1.0810    2.3030   -0.1670 c3        1 LIG     -0.053700
     15 C11         0.9440    3.6030   -0.9620 c3        1 LIG     -0.079900
     16 C12         1.9850    4.6130   -0.4710 c3        1 LIG     -0.072400
     17 C13         1.7580    4.8970    1.0150 c3        1 LIG     -0.075400
     18 C14         1.8940    3.5970    1.8100 c3        1 LIG     -0.072400
     19 C15         0.8540    2.5880    1.3190 c3        1 LIG     -0.079900
     20 C16        -0.8400   -1.0020   -0.3410 c         1 LIG      0.628100
     21 N1         -2.1260   -0.6980   -0.0750 n         1 LIG     -0.518900
     22 C17        -3.1930   -1.6280   -0.4540 c3        1 LIG      0.112700
     23 C18        -4.4070   -1.4060    0.4500 c3        1 LIG     -0.085400
     24 C19        -4.0660   -1.8370    1.8780 c3        1 LIG     -0.127700
     25 C20        -5.2890   -1.6520    2.8060 c3        1 LIG     -0.093400
     26 C21        -5.0310   -0.2450    3.3890 c3        1 LIG      0.081000
     27 N2         -3.5780   -0.0510    3.3140 n         1 LIG     -0.578900
     28 C22        -3.0110   -0.9280    2.4680 c         1 LIG      0.693500
     29 O2         -1.8270   -0.9820    2.2140 o         1 LIG     -0.611500
     30 O3         -4.7070   -2.2070   -2.2460 oh        1 LIG     -0.586800
     31 O4         -0.5660   -2.0460   -0.8940 o         1 LIG     -0.653100
     32 S          -4.0370    0.3620   -2.1300 s6        1 LIG      1.410800
     33 O5         -4.1270    0.6840   -3.5110 o         1 LIG     -0.738533
     34 O6         -2.8170    1.1310   -1.6440 o         1 LIG     -0.738533
     35 O7         -5.0670    0.7300   -1.2230 o         1 LIG     -0.738533
     36 C23        -3.5890   -1.3820   -1.9110 c3        1 LIG     -0.065100
     37 H           4.9070   -0.5450    1.7220 h1        1 LIG      0.061200
     38 H1          5.1320    0.7640    0.5880 h1        1 LIG      0.061200
     39 H2          6.6730    0.5130   -1.2710 ha        1 LIG      0.143500
     40 H3          8.6480   -0.5750   -2.1350 ha        1 LIG      0.127000
     41 H4          9.3660   -2.6860   -1.2090 ha        1 LIG      0.124000
     42 H5          8.1060   -3.7120    0.5760 ha        1 LIG      0.127000
     43 H6          6.1410   -2.6150    1.4530 ha        1 LIG      0.143500
     44 H7          1.6060   -1.2500   -1.0850 hn        1 LIG      0.322500
     45 H8          0.2400    0.1020    1.1090 h1        1 LIG      0.109700
     46 H9          0.1440    1.1610   -1.7140 hc        1 LIG      0.085200
     47 H10        -0.9410    1.6590   -0.4370 hc        1 LIG      0.085200
     48 H11         2.0620    1.9010   -0.3070 hc        1 LIG      0.047700
     49 H12        -0.0370    4.0050   -0.8220 hc        1 LIG      0.050950
     50 H13         1.1020    3.4040   -2.0010 hc        1 LIG      0.050950
     51 H14         1.8890    5.5220   -1.0270 hc        1 LIG      0.029950
     52 H15         2.9660    4.2110   -0.6120 hc        1 LIG      0.029950
     53 H16         0.7770    5.3000    1.1550 hc        1 LIG      0.032200
     54 H17         2.4860    5.6020    1.3580 hc        1 LIG      0.032200
     55 H18         1.7350    3.7960    2.8490 hc        1 LIG      0.029950
     56 H19         2.8750    3.1940    1.6700 hc        1 LIG      0.029950
     57 H20        -0.1270    2.9910    1.4590 hc        1 LIG      0.050950
     58 H21         0.9490    1.6790    1.8750 hc        1 LIG      0.050950
     59 H22        -2.3490    0.1490    0.3740 hn        1 LIG      0.351500
     60 H23        -2.8460   -2.6340   -0.3440 h1        1 LIG      0.065700
     61 H24        -5.2310   -1.9860    0.0900 hc        1 LIG      0.073700
     62 H25        -4.6710   -0.3690    0.4440 hc        1 LIG      0.073700
     63 H26        -3.7450   -2.8560    1.8200 hc        1 LIG      0.089700
     64 H27        -5.3100   -2.3950    3.5760 hc        1 LIG      0.053200
     65 H28        -6.2310   -1.7490    2.3070 hc        1 LIG      0.053200
     66 H29        -5.3630   -0.1940    4.4050 h1        1 LIG      0.030700
     67 H30        -5.5610    0.5120    2.8500 h1        1 LIG      0.030700
     68 H31        -3.0820    0.6340    3.8190 hn        1 LIG      0.310500
     69 H32        -4.9580   -2.0510   -3.1700 ho        1 LIG      0.401000
     70 H33        -2.7650   -1.6210   -2.5500 h2        1 LIG      0.089700
@<TRIPOS>BOND
     1    1    2 2   
     2    2    3 1   
     3    3    4 1   
     4    4    5 1   
     5    5    6 ar  
     6    6    7 ar  
     7    8    7 ar  
     8    9    8 ar  
     9   10    5 ar  
    10   10    9 ar  
    11   11    2 1   
    12   12   11 1   
    13   13   14 1   
    14   13   12 1   
    15   15   14 1   
    16   16   15 1   
    17   17   16 1   
    18   17   18 1   
    19   19   18 1   
    20   19   14 1   
    21   20   12 1   
    22   20   31 2   
    23   21   20 1   
    24   22   23 1   
    25   22   21 1   
    26   23   24 1   
    27   24   28 1   
    28   24   25 1   
    29   25   26 1   
    30   27   26 1   
    31   28   27 1   
    32   29   28 2   
    33   30   36 1   
    34   32   33 1   
    35   32   34 1   
    36   32   35 1   
    37   32   36 1   
    38   36   22 1   
    39    4   37 1   
    40    4   38 1   
    41    6   39 1   
    42    7   40 1   
    43    8   41 1   
    44    9   42 1   
    45   10   43 1   
    46   11   44 1   
    47   12   45 1   
    48   13   46 1   
    49   13   47 1   
    50   14   48 1   
    51   15   49 1   
    52   15   50 1   
    53   16   51 1   
    54   16   52 1   
    55   17   53 1   
    56   17   54 1   
    57   18   55 1   
    58   18   56 1   
    59   19   57 1   
    60   19   58 1   
    61   21   59 1   
    62   22   60 1   
    63   23   61 1   
    64   23   62 1   
    65   24   63 1   
    66   25   64 1   
    67   25   65 1   
    68   26   66 1   
    69   26   67 1   
    70   27   68 1   
    71   30   69 1   
    72   36   70 1   
@<TRIPOS>SUBSTRUCTURE
     1 LIG         1 TEMP              0 ****  ****    0 ROOT
