@<TRIPOS>MOLECULE
97N
   59    58     1     0     0
SMALL
bcc


@<TRIPOS>ATOM
      1 C          11.0510   -3.1680   -0.3380 c3        1 LIG     -0.093100
      2 O          -4.9180    1.2900    0.6550 o         1 LIG     -0.534000
      3 C1          9.6220   -2.8600    0.1150 c3        1 LIG     -0.080400
      4 O1         -5.8760   -0.4740   -0.2690 os        1 LIG     -0.459900
      5 C2          9.3440   -1.3650   -0.0590 c3        1 LIG     -0.079400
      6 O2         -8.0420   -2.2400    0.4540 oh        1 LIG     -0.608800
      7 C3          7.9160   -1.0560    0.3940 c3        1 LIG     -0.079400
      8 O3        -10.6540   -1.2730   -0.2520 oh        1 LIG     -0.595800
      9 C4          7.6380    0.4380    0.2210 c3        1 LIG     -0.077400
     10 C5          6.2090    0.7470    0.6730 c3        1 LIG     -0.049200
     11 C6          5.9360    2.2190    0.5020 c2        1 LIG     -0.172200
     12 C7          4.8780    2.6160   -0.1610 c2        1 LIG     -0.175200
     13 C8          3.8470    1.6110   -0.6070 c3        1 LIG     -0.048200
     14 C9          2.4660    2.0440   -0.1110 c3        1 LIG     -0.077400
     15 C10         1.4190    1.0240   -0.5640 c3        1 LIG     -0.079400
     16 C11         0.0380    1.4560   -0.0680 c3        1 LIG     -0.079400
     17 C12        -1.0090    0.4360   -0.5200 c3        1 LIG     -0.078400
     18 C13        -2.3900    0.8680   -0.0250 c3        1 LIG     -0.079400
     19 C14        -3.4370   -0.1520   -0.4770 c3        1 LIG     -0.126400
     20 C15        -4.7980    0.2740    0.0110 c         1 LIG      0.636100
     21 C16        -7.1540   -0.0030    0.2330 c3        1 LIG      0.103400
     22 C17        -8.2570   -0.9790   -0.1830 c3        1 LIG      0.097100
     23 C18        -9.6180   -0.4200    0.2380 c3        1 LIG      0.138400
     24 H          11.2460   -4.2130   -0.2170 hc        1 LIG      0.032700
     25 H1         11.7420   -2.6050    0.2540 hc        1 LIG      0.032700
     26 H2         11.1640   -2.9010   -1.3680 hc        1 LIG      0.032700
     27 H3          9.5090   -3.1270    1.1450 hc        1 LIG      0.038700
     28 H4          8.9310   -3.4230   -0.4760 hc        1 LIG      0.038700
     29 H5          9.4570   -1.0990   -1.0890 hc        1 LIG      0.039700
     30 H6         10.0360   -0.8020    0.5330 hc        1 LIG      0.039700
     31 H7         -7.1790   -2.5940    0.1870 ho        1 LIG      0.420000
     32 H8          7.8030   -1.3230    1.4240 hc        1 LIG      0.039700
     33 H9          7.2240   -1.6180   -0.1980 hc        1 LIG      0.039700
     34 H10       -11.5170   -0.9190    0.0140 ho        1 LIG      0.417000
     35 H11         7.7520    0.7050   -0.8090 hc        1 LIG      0.041700
     36 H12         8.3290    1.0000    0.8140 hc        1 LIG      0.041700
     37 H13         6.0950    0.4800    1.7030 hc        1 LIG      0.047700
     38 H14         5.5180    0.1850    0.0810 hc        1 LIG      0.047700
     39 H15         6.5820    2.9140    0.9070 ha        1 LIG      0.122000
     40 H16         4.7500    3.6170   -0.3780 ha        1 LIG      0.122000
     41 H17         4.0870    0.6500   -0.2020 hc        1 LIG      0.047200
     42 H18         3.8410    1.5560   -1.6750 hc        1 LIG      0.047200
     43 H19         2.2270    3.0050   -0.5160 hc        1 LIG      0.042700
     44 H20         2.4720    2.0990    0.9580 hc        1 LIG      0.042700
     45 H21         1.6590    0.0630   -0.1590 hc        1 LIG      0.040200
     46 H22         1.4130    0.9700   -1.6330 hc        1 LIG      0.040200
     47 H23        -0.2020    2.4170   -0.4730 hc        1 LIG      0.043700
     48 H24         0.0440    1.5110    1.0010 hc        1 LIG      0.043700
     49 H25        -0.7690   -0.5250   -0.1140 hc        1 LIG      0.041200
     50 H26        -1.0150    0.3810   -1.5890 hc        1 LIG      0.041200
     51 H27        -2.6300    1.8290   -0.4310 hc        1 LIG      0.058700
     52 H28        -2.3840    0.9230    1.0440 hc        1 LIG      0.058700
     53 H29        -3.1970   -1.1130   -0.0710 hc        1 LIG      0.078700
     54 H30        -3.4430   -0.2070   -1.5460 hc        1 LIG      0.078700
     55 H31        -7.3620    0.9650   -0.1730 h1        1 LIG      0.065700
     56 H32        -7.1170    0.0590    1.3010 h1        1 LIG      0.065700
     57 H33        -8.2380   -1.1080   -1.2450 h1        1 LIG      0.060700
     58 H34        -9.7420    0.5620   -0.1690 h1        1 LIG      0.054700
     59 H35        -9.6700   -0.3720    1.3060 h1        1 LIG      0.054700
@<TRIPOS>BOND
     1    1    3 1   
     2    2   20 2   
     3    3    5 1   
     4    4   21 1   
     5    5    7 1   
     6    6   22 1   
     7    7    9 1   
     8    9   10 1   
     9   10   11 1   
    10   11   12 2   
    11   12   13 1   
    12   13   14 1   
    13   14   15 1   
    14   15   16 1   
    15   16   17 1   
    16   17   18 1   
    17   18   19 1   
    18   19   20 1   
    19   20    4 1   
    20   21   22 1   
    21   22   23 1   
    22   23    8 1   
    23    1   24 1   
    24    1   25 1   
    25    1   26 1   
    26    3   27 1   
    27    3   28 1   
    28    5   29 1   
    29    5   30 1   
    30    6   31 1   
    31    7   32 1   
    32    7   33 1   
    33    8   34 1   
    34    9   35 1   
    35    9   36 1   
    36   10   37 1   
    37   10   38 1   
    38   11   39 1   
    39   12   40 1   
    40   13   41 1   
    41   13   42 1   
    42   14   43 1   
    43   14   44 1   
    44   15   45 1   
    45   15   46 1   
    46   16   47 1   
    47   16   48 1   
    48   17   49 1   
    49   17   50 1   
    50   18   51 1   
    51   18   52 1   
    52   19   53 1   
    53   19   54 1   
    54   21   55 1   
    55   21   56 1   
    56   22   57 1   
    57   23   58 1   
    58   23   59 1   
@<TRIPOS>SUBSTRUCTURE
     1 LIG         1 TEMP              0 ****  ****    0 ROOT
