@<TRIPOS>MOLECULE
0JO
   31    31     1     0     0
SMALL
bcc


@<TRIPOS>ATOM
      1 O           2.2730   -2.4470   -1.2480 o         1 ALA     -0.846300
      2 C           3.1940   -2.5850   -0.4680 c         1 ALA      0.922800
      3 OXT         3.9020   -3.7300   -0.4560 o         1 ALA     -0.846300
      4 CA          3.5400   -1.4930    0.4660 ce        1 ALA      0.000800
      5 CB          4.4970   -1.6790    1.3930 c2        1 ALA     -0.298000
      6 N           2.8870   -0.2930    0.3870 n2        1 ALA     -0.342000
      7 C           1.5870   -0.2620    0.3150 ce        0 UNK      0.073000
      8 C1          0.8910    1.0200    0.1140 cd        0 UNK     -0.132000
      9 C2          1.6100    2.2220   -0.0070 cd        0 UNK      0.091100
     10 O           2.9660    2.2260    0.0570 oh        0 UNK     -0.538100
     11 C3          0.9090    3.4050   -0.1950 cc        0 UNK     -0.135200
     12 C4          1.6620    4.7030   -0.3280 c3        0 UNK     -0.005900
     13 N          -0.4070    3.4060   -0.2600 n2        0 UNK     -0.148000
     14 C5         -1.1170    2.3000   -0.1500 cc        0 UNK     -0.111000
     15 C6         -0.5070    1.0770    0.0340 cd        0 UNK     -0.060200
     16 C7         -1.3310   -0.1790    0.1520 c3        0 UNK      0.242600
     17 O1         -2.7180    0.1490    0.0370 os        0 UNK     -0.563200
     18 P          -3.8890   -0.9530    0.1170 p5        0 UNK      1.316900
     19 O2         -3.7590   -1.7210    1.3760 o         0 UNK     -0.924833
     20 O3         -5.3210   -0.2180    0.0810 o         0 UNK     -0.924833
     21 O4         -3.7690   -1.9560   -1.1380 o         0 UNK     -0.924833
     22 HB1         4.9890   -2.5840    1.4520 ha        1 ALA      0.099500
     23 HB2         4.7390   -0.9160    2.0450 ha        1 ALA      0.099500
     24 H           1.0450   -1.1360    0.3990 h4        0 UNK      0.116000
     25 H1          3.4310    1.4230    0.1840 ho        0 UNK      0.454000
     26 H2          2.7130    4.5150   -0.2520 hc        0 UNK      0.018700
     27 H3          1.3610    5.3710    0.4520 hc        0 UNK      0.018700
     28 H4          1.4470    5.1440   -1.2790 hc        0 UNK      0.018700
     29 H5         -2.1460    2.3510   -0.2030 h4        0 UNK      0.287000
     30 H6         -1.1500   -0.6360    1.1020 h1        0 UNK      0.020200
     31 H7         -1.0590   -0.8590   -0.6280 h1        0 UNK      0.020200
@<TRIPOS>BOND
     1    1    2 1   
     2    2    4 1   
     3    3    2 1   
     4    4    5 2   
     5    4    6 1   
     6    6    7 1   
     7    7    8 2   
     8    8   15 ar  
     9    9    8 ar  
    10    9   11 ar  
    11   10    9 1   
    12   11   13 ar  
    13   12   11 1   
    14   13   14 ar  
    15   15   16 1   
    16   15   14 ar  
    17   17   16 1   
    18   17   18 1   
    19   18   21 1   
    20   19   18 1   
    21   20   18 1   
    22    5   22 1   
    23    5   23 1   
    24    7   24 1   
    25   10   25 1   
    26   12   26 1   
    27   12   27 1   
    28   12   28 1   
    29   14   29 1   
    30   16   30 1   
    31   16   31 1   
@<TRIPOS>SUBSTRUCTURE
     1 ALA         1 TEMP              0 ****  ****    0 ROOT
