@<TRIPOS>MOLECULE
PGI
   43    45     1     0     0
SMALL
bcc


@<TRIPOS>ATOM
      1 O          -1.5980    3.3470   -0.0430 oh        1 LIG     -0.620800
      2 C          -2.7060    2.5760    0.4270 c3        1 LIG      0.123400
      3 C1         -2.7350    1.2300   -0.3000 c3        1 LIG     -0.005000
      4 C2         -3.9880    0.4520    0.1130 c3        1 LIG      0.100100
      5 O1         -5.1460    1.0870   -0.4340 oh        1 LIG     -0.557800
      6 C3         -3.8910   -0.9820   -0.4170 c3        1 LIG      0.067100
      7 O2         -5.1330   -1.6570   -0.2030 oh        1 LIG     -0.564800
      8 C4         -2.7710   -1.7130    0.3330 c3        1 LIG      0.186400
      9 O3         -2.4730   -2.9440   -0.3290 oh        1 LIG     -0.589800
     10 N          -1.5450    0.4510    0.0620 na        1 LIG     -0.011100
     11 C5         -0.2940    0.9200    0.1650 cc        1 LIG     -0.104300
     12 C6          0.5090   -0.1030    0.5160 cd        1 LIG     -0.061600
     13 N1         -0.2850   -1.2120    0.6270 na        1 LIG     -0.110100
     14 C7         -1.5460   -0.8300    0.3400 cc        1 LIG     -0.008900
     15 C8          1.9980   -0.0380    0.7430 c3        1 LIG     -0.034100
     16 C9          2.7250   -0.1930   -0.5940 c3        1 LIG     -0.029100
     17 C10         4.2130   -0.1280   -0.3670 ca        1 LIG     -0.112300
     18 C11         4.9240   -1.2850   -0.1100 ca        1 LIG     -0.122000
     19 C12         6.2900   -1.2260    0.0990 ca        1 LIG     -0.120000
     20 C13         4.8690    1.0880   -0.4210 ca        1 LIG     -0.122000
     21 C14         6.2330    1.1480   -0.2090 ca        1 LIG     -0.120000
     22 C15         6.9440   -0.0090    0.0490 ca        1 LIG     -0.111000
     23 H          -1.5790    4.2000    0.4180 ho        1 LIG      0.441000
     24 H1         -3.6160    3.1050    0.2350 h1        1 LIG      0.073200
     25 H2         -2.6050    2.4110    1.4790 h1        1 LIG      0.073200
     26 H3         -2.7480    1.3990   -1.3560 h1        1 LIG      0.110700
     27 H4         -4.0640    0.4350    1.1800 h1        1 LIG      0.103700
     28 H5         -5.0790    1.1040   -1.4010 ho        1 LIG      0.430000
     29 H6         -3.6760   -0.9680   -1.4650 h1        1 LIG      0.108700
     30 H7         -5.3330   -1.6730    0.7460 ho        1 LIG      0.432000
     31 H8         -3.0770   -1.9250    1.3360 h1        1 LIG      0.094700
     32 H9         -2.1940   -2.7620   -1.2400 ho        1 LIG      0.463000
     33 H10         0.0030    1.8950    0.0040 h4        1 LIG      0.251000
     34 H11         0.0090   -2.1190    0.8710 hn        1 LIG      0.363700
     35 H12         2.2930   -0.8270    1.4030 hc        1 LIG      0.093200
     36 H13         2.2510    0.9050    1.1790 hc        1 LIG      0.093200
     37 H14         2.4300    0.5960   -1.2540 hc        1 LIG      0.051200
     38 H15         2.4720   -1.1370   -1.0300 hc        1 LIG      0.051200
     39 H16         4.4360   -2.1930   -0.0740 ha        1 LIG      0.129000
     40 H17         6.8210   -2.0900    0.2920 ha        1 LIG      0.144000
     41 H18         4.3400    1.9510   -0.6200 ha        1 LIG      0.129000
     42 H19         6.7210    2.0570   -0.2430 ha        1 LIG      0.144000
     43 H20         7.9630    0.0360    0.2040 ha        1 LIG      0.146000
@<TRIPOS>BOND
     1    1    2 1   
     2    2    3 1   
     3    3    4 1   
     4    3   10 1   
     5    4    5 1   
     6    4    6 1   
     7    6    7 1   
     8    6    8 1   
     9    8    9 1   
    10    8   14 1   
    11   10   11 ar  
    12   10   14 ar  
    13   11   12 ar  
    14   12   13 ar  
    15   12   15 1   
    16   13   14 ar  
    17   15   16 1   
    18   16   17 1   
    19   17   18 ar  
    20   17   20 ar  
    21   18   19 ar  
    22   19   22 ar  
    23   20   21 ar  
    24   21   22 ar  
    25    1   23 1   
    26    2   24 1   
    27    2   25 1   
    28    3   26 1   
    29    4   27 1   
    30    5   28 1   
    31    6   29 1   
    32    7   30 1   
    33    8   31 1   
    34    9   32 1   
    35   11   33 1   
    36   13   34 1   
    37   15   35 1   
    38   15   36 1   
    39   16   37 1   
    40   16   38 1   
    41   18   39 1   
    42   19   40 1   
    43   20   41 1   
    44   21   42 1   
    45   22   43 1   
@<TRIPOS>SUBSTRUCTURE
     1 LIG         1 TEMP              0 ****  ****    0 ROOT
