@<TRIPOS>MOLECULE
PQR
   20    20     1     0     0
SMALL
bcc


@<TRIPOS>ATOM
      1 O          -3.5910    0.4850   -0.0100 O.h       1 LIG     -0.514100
      2 C          -2.2330    0.4190   -0.0070 C.a       1 LIG      0.030100
      3 C1         -1.5960   -0.8200    0.0070 C.a       1 LIG      0.127100
      4 O1         -2.3330   -1.9640    0.0180 O.h       1 LIG     -0.490100
      5 C2         -0.2140   -0.8860    0.0100 C.a       1 LIG     -0.138000
      6 C3          0.5360    0.2840   -0.0020 C.a       1 LIG      0.153600
      7 N           1.9310    0.2190    0.0010 N.h       1 LIG     -0.530800
      8 N1          2.5230   -0.9270    0.0130 N.2       1 LIG      0.243700
      9 O2          3.7400   -0.9830    0.0150 O.3       1 LIG     -0.229700
     10 C4          2.7210    1.4520   -0.0110 C.3       1 LIG      0.168100
     11 C5         -1.4820    1.5830   -0.0230 C.a       1 LIG     -0.154000
     12 C6         -0.1020    1.5180   -0.0150 C.a       1 LIG     -0.154000
     13 H          -4.0980   -0.3030    0.0010 H         1 LIG      0.430000
     14 H1         -3.2690   -1.9180    0.0160 H         1 LIG      0.440000
     15 H2          0.2590   -1.8030    0.0210 H         1 LIG      0.170000
     16 H3          2.0640    2.2960   -0.0200 H         1 LIG      0.055033
     17 H4          3.3390    1.4710   -0.8840 H         1 LIG      0.055033
     18 H5          3.3380    1.4890    0.8630 H         1 LIG      0.055033
     19 H6         -1.9540    2.5000   -0.0410 H         1 LIG      0.139000
     20 H7          0.4550    2.3870   -0.0190 H         1 LIG      0.143000
@<TRIPOS>BOND
     1    2    3 ar  
     2    2    1 1   
     3    3    4 1   
     4    5    3 ar  
     5    6    5 ar  
     6    7   10 1   
     7    7    6 1   
     8    8    7 1   
     9    9    8 2   
    10   11    2 ar  
    11   12    6 ar  
    12   12   11 ar  
    13    1   13 1   
    14    4   14 1   
    15    5   15 1   
    16   10   16 1   
    17   10   17 1   
    18   10   18 1   
    19   11   19 1   
    20   12   20 1   
@<TRIPOS>SUBSTRUCTURE
     1 LIG         1 TEMP              0 ****  ****    0 ROOT
