@<TRIPOS>MOLECULE
C21
   11    11     1     0     0
SMALL
bcc


@<TRIPOS>ATOM
      1 O           2.3360   -1.1230    0.0010 O.3       1 LIG     -0.825300
      2 C           1.6600   -0.1120    0.0010 C.        1 LIG      0.932200
      3 O1          2.2560    1.0980    0.0000 O.3       1 LIG     -0.825300
      4 C1          0.1990   -0.2080    0.0010 C.c       1 LIG     -0.102700
      5 S          -1.0140    1.1000    0.0000 S.3       1 LIG     -0.007800
      6 C2         -0.6030   -1.3400   -0.0040 C.d       1 LIG     -0.180000
      7 C3         -1.9610   -1.1430    0.0020 C.d       1 LIG     -0.174000
      8 C4         -2.4480    0.1260    0.0010 C.c       1 LIG     -0.232100
      9 H          -0.1960   -2.2880   -0.0120 H         1 LIG      0.157000
     10 H1         -2.6050   -1.9490    0.0070 H         1 LIG      0.119000
     11 H2         -3.4330    0.4350    0.0010 H         1 LIG      0.137000
@<TRIPOS>BOND
     1    1    2 1   
     2    2    3 1   
     3    2    4 1   
     4    4    5 ar  
     5    4    6 ar  
     6    5    8 ar  
     7    6    7 ar  
     8    7    8 ar  
     9    6    9 1   
    10    7   10 1   
    11    8   11 1   
@<TRIPOS>SUBSTRUCTURE
     1 LIG         1 TEMP              0 ****  ****    0 ROOT
