@<TRIPOS>MOLECULE
ZBR
   21    21     1     0     0
SMALL
bcc


@<TRIPOS>ATOM
      1 C          -1.3900    0.0050   -0.3820 ca        1 LIG     -0.088300
      2 C1         -0.8080   -1.1930   -0.0150 ca        1 LIG     -0.089000
      3 C2          0.3640   -1.1970    0.7180 ca        1 LIG     -0.088300
      4 C3          0.9530   -0.0020    1.0850 ca        1 LIG     -0.089000
      5 C4          0.3710    1.1970    0.7180 ca        1 LIG     -0.088300
      6 C5         -0.8010    1.2010   -0.0150 ca        1 LIG     -0.089000
      7 C6         -2.6640    0.0090   -1.1860 c3        1 LIG      0.034633
      8 C7          0.9980   -2.5040    1.1190 c3        1 LIG      0.034633
      9 C8          1.0140    2.5010    1.1180 c3        1 LIG      0.034633
     10 Br          2.2570   -3.0760   -0.2780 br        1 LIG     -0.165067
     11 Br1        -4.2080    0.0090    0.0310 br        1 LIG     -0.165067
     12 Br2         2.2780    3.0640   -0.2780 br        1 LIG     -0.165067
     13 H          -1.2480   -2.0850   -0.2880 ha        1 LIG      0.143000
     14 H1          1.8270   -0.0050    1.6330 ha        1 LIG      0.143000
     15 H2         -1.2360    2.0960   -0.2880 ha        1 LIG      0.143000
     16 H3         -2.6980   -0.8630   -1.8050 h1        1 LIG      0.082700
     17 H4         -2.6950    0.8840   -1.8010 h1        1 LIG      0.082700
     18 H5          0.2380   -3.2470    1.2400 h1        1 LIG      0.082700
     19 H6          1.5230   -2.3780    2.0430 h1        1 LIG      0.082700
     20 H7          1.5380    2.3720    2.0420 h1        1 LIG      0.082700
     21 H8          0.2590    3.2490    1.2380 h1        1 LIG      0.082700
@<TRIPOS>BOND
     1    1    2 ar  
     2    1    6 ar  
     3    1    7 1   
     4    2    3 ar  
     5    3    4 ar  
     6    3    8 1   
     7    4    5 ar  
     8    5    6 ar  
     9    5    9 1   
    10    7   11 1   
    11    8   10 1   
    12    9   12 1   
    13    2   13 1   
    14    4   14 1   
    15    6   15 1   
    16    7   16 1   
    17    7   17 1   
    18    8   18 1   
    19    8   19 1   
    20    9   20 1   
    21    9   21 1   
@<TRIPOS>SUBSTRUCTURE
     1 LIG         1 TEMP              0 ****  ****    0 ROOT
