@<TRIPOS>MOLECULE
GMC
   40    42     1     0     0
SMALL
bcc


@<TRIPOS>ATOM
      1 C           0.0200    0.2800    5.7150 c3        1 LIG      0.199600
      2 N           0.7300    0.6180    4.4750 nh        1 LIG     -0.744300
      3 C1          1.9960   -0.1260    4.4970 c3        1 LIG      0.199600
      4 C2         -0.0180    0.0980    3.4330 ca        1 LIG      0.772200
      5 C3          0.3950    0.2590    2.1000 ca        1 LIG     -0.214200
      6 C4         -0.4030   -0.2950    1.0860 ca        1 LIG      0.454800
      7 N1         -1.5180   -0.9370    1.4210 nb        1 LIG     -0.810000
      8 C5         -1.8690   -1.0580    2.6840 ca        1 LIG      0.709900
      9 N2         -1.1480   -0.5590    3.6710 nb        1 LIG     -0.780000
     10 N3          1.4570    0.8440    1.4960 nc        1 LIG     -0.514100
     11 C6          1.3590    0.6950    0.2070 cd        1 LIG      0.422700
     12 N4          0.2270   -0.0010   -0.0950 na        1 LIG     -0.316000
     13 C7         -0.2310   -0.3690   -1.4370 c3        1 LIG      0.251800
     14 O           0.8910   -0.4800   -2.3390 os        1 LIG     -0.388600
     15 C8          0.3310   -0.3460   -3.6630 c3        1 LIG      0.131100
     16 C9          1.4160    0.0600   -4.6620 c3        1 LIG      0.121400
     17 O1          2.4200   -0.9540   -4.7130 oh        1 LIG     -0.665800
     18 C10        -1.1080    0.7540   -2.0320 c3        1 LIG      0.103100
     19 O2         -2.4960    0.4520   -1.8710 oh        1 LIG     -0.634800
     20 C11        -0.7270    0.7710   -3.5320 c3        1 LIG      0.077500
     21 N5         -1.8990    0.4690   -4.3640 n4        1 LIG     -0.815600
     22 H           0.5640    0.6630    6.5530 h1        1 LIG      0.059200
     23 H1         -0.0630   -0.7830    5.8000 h1        1 LIG      0.059200
     24 H2         -0.9580    0.7140    5.6960 h1        1 LIG      0.059200
     25 H3          2.6120    0.2420    5.2910 h1        1 LIG      0.059200
     26 H4          2.5020    0.0040    3.5630 h1        1 LIG      0.059200
     27 H5          1.7960   -1.1650    4.6530 h1        1 LIG      0.059200
     28 H6         -2.7400   -1.5620    2.9110 h5        1 LIG      0.059100
     29 H7          2.0380    1.0510   -0.4840 h5        1 LIG      0.087800
     30 H8         -0.7650   -1.2910   -1.3410 h2        1 LIG      0.103700
     31 H9         -0.0900   -1.2620   -4.0200 h1        1 LIG      0.078700
     32 H10         1.8580    0.9840   -4.3530 h1        1 LIG      0.076700
     33 H11         0.9810    0.1800   -5.6320 h1        1 LIG      0.076700
     34 H12         2.8150   -1.0630   -3.8340 ho        1 LIG      0.454000
     35 H13        -0.9490    1.6970   -1.5530 h1        1 LIG      0.113700
     36 H14        -2.6920   -0.4000   -2.2910 ho        1 LIG      0.482000
     37 H15        -0.3630    1.7240   -3.8540 hx        1 LIG      0.131700
     38 H16        -2.2840   -0.4360   -4.0930 hn        1 LIG      0.473133
     39 H17        -1.6210    0.4400   -5.3450 hn        1 LIG      0.473133
     40 H18        -2.6060    1.1930   -4.2320 hn        1 LIG      0.473133
@<TRIPOS>BOND
     1    1    2 1   
     2    2    3 1   
     3    2    4 1   
     4    4    5 ar  
     5    4    9 ar  
     6    5    6 ar  
     7    5   10 1   
     8    6    7 ar  
     9    6   12 1   
    10    7    8 ar  
    11    8    9 ar  
    12   10   11 2   
    13   11   12 1   
    14   12   13 1   
    15   13   14 1   
    16   13   18 1   
    17   14   15 1   
    18   15   16 1   
    19   15   20 1   
    20   16   17 1   
    21   18   19 1   
    22   18   20 1   
    23   20   21 1   
    24    1   22 1   
    25    1   23 1   
    26    1   24 1   
    27    3   25 1   
    28    3   26 1   
    29    3   27 1   
    30    8   28 1   
    31   11   29 1   
    32   13   30 1   
    33   15   31 1   
    34   16   32 1   
    35   16   33 1   
    36   17   34 1   
    37   18   35 1   
    38   19   36 1   
    39   20   37 1   
    40   21   38 1   
    41   21   39 1   
    42   21   40 1   
@<TRIPOS>SUBSTRUCTURE
     1 LIG         1 TEMP              0 ****  ****    0 ROOT
