@<TRIPOS>MOLECULE
282
   15    15     1     0     0
SMALL
bcc


@<TRIPOS>ATOM
      1 C          -2.7170    0.4330    0.0010 c3        1 LIG      0.111700
      2 O          -1.7820   -0.6480    0.0000 os        1 LIG     -0.319900
      3 C1         -0.4630   -0.3230    0.0000 ca        1 LIG      0.007800
      4 C2          0.5090   -1.3180   -0.0010 ca        1 LIG     -0.122000
      5 C3          1.8420   -0.9370   -0.0000 ca        1 LIG     -0.214300
      6 C4          2.1590    0.4080    0.0010 ca        1 LIG      0.357200
      7 N           1.2130    1.3270    0.0020 nb        1 LIG     -0.636000
      8 C5         -0.0660    1.0060   -0.0040 ca        1 LIG      0.324200
      9 H          -3.7130    0.0430    0.0010 h1        1 LIG      0.047700
     10 H1         -2.5690    1.0330   -0.8720 h1        1 LIG      0.047700
     11 H2         -2.5690    1.0320    0.8750 h1        1 LIG      0.047700
     12 H3          0.2440   -2.3160   -0.0030 ha        1 LIG      0.154000
     13 H4          2.5890   -1.6490   -0.0000 ha        1 LIG      0.145000
     14 H5          3.1500    0.6970    0.0010 h4        1 LIG      0.024100
     15 H6         -0.7790    1.7520   -0.0120 h4        1 LIG      0.025100
@<TRIPOS>BOND
     1    1    2 1   
     2    2    3 1   
     3    3    4 ar  
     4    3    8 ar  
     5    4    5 ar  
     6    5    6 ar  
     7    6    7 ar  
     8    7    8 ar  
     9    1    9 1   
    10    1   10 1   
    11    1   11 1   
    12    4   12 1   
    13    5   13 1   
    14    6   14 1   
    15    8   15 1   
@<TRIPOS>SUBSTRUCTURE
     1 LIG         1 TEMP              0 ****  ****    0 ROOT
