@<TRIPOS>MOLECULE
N1C
   53    57     1     0     0
SMALL
bcc


@<TRIPOS>ATOM
      1 O           5.5610    3.5100    3.3870 o         1 LIG     -0.647500
      2 P           4.1620    4.1010    3.4810 p5        1 LIG      1.652800
      3 O1          3.6290    3.9540    4.9900 os        1 LIG     -0.823800
      4 O2          3.8740    5.5440    3.0580 o         1 LIG     -0.647500
      5 O3          3.1650    3.1570    2.6320 os        1 LIG     -0.601200
      6 C           1.7560    3.3960    2.6900 c3        1 LIG      0.156400
      7 C1          1.1920    3.6620    1.2870 c3        1 LIG      0.092100
      8 C2         -0.3070    3.4630    1.2690 c3        1 LIG      0.062100
      9 O4         -0.8900    4.5840    0.5910 oh        1 LIG     -0.592800
     10 C3         -0.5400    2.1560    0.5270 c3        1 LIG      0.080100
     11 O5         -1.3500    2.4160   -0.6240 oh        1 LIG     -0.574800
     12 O6          1.6900    2.7430    0.3050 os        1 LIG     -0.432600
     13 C4          0.8310    1.6120    0.1250 c3        1 LIG      0.244500
     14 N           1.3060    0.5800    1.0650 n         1 LIG     -0.397300
     15 C5          0.4220   -0.3510    1.6720 c         1 LIG      0.650000
     16 O7         -0.7950   -0.3960    1.4040 o         1 LIG     -0.641500
     17 C6          0.9950   -1.3270    2.6280 cc        1 LIG      0.184800
     18 N1          0.4540   -2.3190    3.3690 nc        1 LIG     -0.639000
     19 C7          1.4640   -2.8810    4.0690 cd        1 LIG      0.413400
     20 C8          2.6140    0.5350    1.3900 cc        1 LIG      0.486800
     21 N2          3.1270   -0.3500    2.2630 nd        1 LIG     -0.582100
     22 C9          2.3500   -1.2740    2.8930 cd        1 LIG      0.063800
     23 N3          2.6100   -2.2510    3.7710 na        1 LIG     -0.148900
     24 C10         3.9150   -2.5960    4.3890 c3        1 LIG      0.138800
     25 O8          4.0050   -1.7400    5.5350 os        1 LIG     -0.365600
     26 C11         5.1370   -2.3060    3.5260 c3        1 LIG      0.160100
     27 O9          6.0650   -3.3830    3.7110 oh        1 LIG     -0.619800
     28 C12         5.7000   -1.0820    4.1610 c3        1 LIG     -0.321900
     29 O10         6.7950   -0.4600    3.7320 oh        1 LIG     -0.515800
     30 C13         4.9960   -0.7360    5.2210 c3        1 LIG     -0.023900
     31 C14         5.1750    0.5350    6.0220 c3        1 LIG      0.132400
     32 O11         4.4730    1.6110    5.3930 os        1 LIG     -0.595200
     33 P1          4.4190    3.0660    6.0790 p5        1 LIG      1.574800
     34 O12         5.8320    3.5850    6.2400 o         1 LIG     -0.831000
     35 O13         3.5060    3.0060    7.2780 o         1 LIG     -0.831000
     36 H           1.5690    4.2470    3.3110 h1        1 LIG      0.071700
     37 H1          1.2770    2.5290    3.0950 h1        1 LIG      0.071700
     38 H2          1.4850    4.6650    1.0570 h1        1 LIG      0.089700
     39 H3         -0.7490    3.4080    2.2420 h1        1 LIG      0.190700
     40 H4         -0.5070    4.6600   -0.2970 ho        1 LIG      0.389000
     41 H5         -1.0480    1.4370    1.1350 h1        1 LIG      0.105700
     42 H6         -0.9070    3.0670   -1.1910 ho        1 LIG      0.406000
     43 H7          0.8070    1.1860   -0.8560 h2        1 LIG      0.102700
     44 H8          1.3690   -3.6700    4.7280 h5        1 LIG      0.079100
     45 H9          3.2530    1.2130    0.9470 h5        1 LIG      0.057800
     46 H10         3.9300   -3.6490    4.5780 h2        1 LIG      0.094700
     47 H11         4.9290   -2.1950    2.4820 h1        1 LIG      0.050700
     48 H12         6.2560   -3.4870    4.6560 ho        1 LIG      0.406000
     49 H13         6.3830   -0.3750    3.7380 h1        1 LIG      0.234700
     50 H14         7.5720   -1.0120    3.9130 ho        1 LIG      0.345000
     51 H15         5.2630    0.1950    5.6760 h1        1 LIG      0.005700
     52 H16         6.2160    0.7750    6.0780 h1        1 LIG      0.020200
     53 H17         4.7840    0.3880    7.0070 h1        1 LIG      0.020200
@<TRIPOS>BOND
     1    1    2 1   
     2    2    5 1   
     3    2    4 1   
     4    2    3 1   
     5    3   33 1   
     6    5    6 1   
     7    6    7 1   
     8    7   12 1   
     9    7    8 1   
    10    8   10 1   
    11    8    9 1   
    12   10   11 1   
    13   10   13 1   
    14   12   13 1   
    15   13   14 1   
    16   14   20 1   
    17   14   15 1   
    18   15   16 2   
    19   15   17 1   
    20   17   22 ar  
    21   17   18 ar  
    22   18   19 ar  
    23   19   23 ar  
    24   20   21 2   
    25   21   22 1   
    26   22   23 ar  
    27   23   24 1   
    28   24   26 1   
    29   24   25 1   
    30   25   30 1   
    31   26   27 1   
    32   26   28 1   
    33   28   29 1   
    34   28   30 1   
    35   30   31 1   
    36   31   32 1   
    37   32   33 1   
    38   33   34 1   
    39   33   35 1   
    40    6   36 1   
    41    6   37 1   
    42    7   38 1   
    43    8   39 1   
    44    9   40 1   
    45   10   41 1   
    46   11   42 1   
    47   13   43 1   
    48   19   44 1   
    49   20   45 1   
    50   24   46 1   
    51   26   47 1   
    52   27   48 1   
    53   28   49 1   
    54   29   50 1   
    55   30   51 1   
    56   31   52 1   
    57   31   53 1   
@<TRIPOS>SUBSTRUCTURE
     1 LIG         1 TEMP              0 ****  ****    0 ROOT
