@<TRIPOS>MOLECULE
NSS
   52    54     1     0     0
SMALL
bcc


@<TRIPOS>ATOM
      1 O          -3.5490    3.5610    0.4730 o         1 LIG     -0.615800
      2 S          -2.9330    4.0780    1.6810 s6        1 LIG      1.710100
      3 O1         -2.1330    5.2880    1.6330 o         1 LIG     -0.615800
      4 N          -4.1630    4.3180    2.8510 n         1 LIG     -0.628300
      5 C          -5.4120    3.6200    2.8670 c         1 LIG      0.688100
      6 O2         -5.7250    2.7800    2.0290 o         1 LIG     -0.582100
      7 C1         -6.3190    4.0250    4.0140 c3        1 LIG      0.036500
      8 N1         -7.5390    4.6840    3.4540 n4        1 LIG     -0.832600
      9 C2         -6.7690    2.8000    4.8100 c3        1 LIG     -0.192400
     10 C3         -5.6230    2.0920    5.5120 c         1 LIG      0.664100
     11 O3         -4.4470    2.4310    5.4270 o         1 LIG     -0.638100
     12 N2         -6.0520    1.0070    6.2470 n         1 LIG     -0.621000
     13 O4         -2.0170    2.8920    2.3350 os        1 LIG     -0.547500
     14 C4         -0.8810    2.4280    1.6210 c3        1 LIG      0.168400
     15 C5         -0.1990    1.3330    2.4290 c3        1 LIG      0.067100
     16 C6          1.0320    0.7610    1.7340 c3        1 LIG      0.091100
     17 O5          1.9180    0.2380    2.7250 oh        1 LIG     -0.569800
     18 C7          0.4470   -0.3800    0.9260 c3        1 LIG      0.076100
     19 O6          1.3990   -1.3700    0.5960 oh        1 LIG     -0.591800
     20 C8         -0.6160   -0.9100    1.8770 c3        1 LIG      0.257800
     21 O7         -1.1280    0.2360    2.5840 os        1 LIG     -0.463600
     22 N3         -1.7130   -1.6110    1.2130 na        1 LIG     -0.300000
     23 C9         -1.8150   -2.9570    0.9960 ca        1 LIG      0.455800
     24 N4         -0.9370   -3.9090    1.3430 nb        1 LIG     -0.800000
     25 C10        -1.3840   -5.1250    0.9600 ca        1 LIG      0.683900
     26 N5         -2.5320   -5.4440    0.3160 nb        1 LIG     -0.785000
     27 C11        -3.3730   -4.4310   -0.0040 ca        1 LIG      0.769200
     28 N6         -4.5800   -4.6980   -0.6720 nh        1 LIG     -0.937500
     29 C12        -3.0230   -3.1290    0.3390 ca        1 LIG     -0.230200
     30 N7         -3.6510   -1.9230    0.1540 nc        1 LIG     -0.521100
     31 C13        -2.8410   -1.0340    0.6890 cd        1 LIG      0.439700
     32 H          -3.9990    4.9810    3.5600 hn        1 LIG      0.383500
     33 H1         -5.7780    4.6870    4.6570 hx        1 LIG      0.168700
     34 H2         -8.0310    4.0290    2.8470 hn        1 LIG      0.472133
     35 H3         -7.2650    5.5060    2.9160 hn        1 LIG      0.472133
     36 H4         -8.1530    4.9670    4.2180 hn        1 LIG      0.472133
     37 H5         -7.2350    2.1100    4.1380 hc        1 LIG      0.105200
     38 H6         -7.4440    3.1410    5.5660 hc        1 LIG      0.105200
     39 H7         -7.0100    0.7820    6.2790 hn        1 LIG      0.341500
     40 H8         -5.4000    0.4580    6.7400 hn        1 LIG      0.341500
     41 H9         -0.1990    3.2380    1.4670 h1        1 LIG      0.083200
     42 H10        -1.1850    2.0390    0.6720 h1        1 LIG      0.083200
     43 H11         0.1000    1.7710    3.3580 h1        1 LIG      0.104700
     44 H12         1.5780    1.4700    1.1470 h1        1 LIG      0.107700
     45 H13         1.4460   -0.4090    3.2720 ho        1 LIG      0.422000
     46 H14         0.0740   -0.0740   -0.0290 h1        1 LIG      0.084700
     47 H15         1.8010   -1.7160    1.4080 ho        1 LIG      0.438000
     48 H16        -0.1700   -1.6380    2.5220 h2        1 LIG      0.120700
     49 H17        -0.7660   -5.9190    1.1900 h5        1 LIG      0.051100
     50 H18        -4.8170   -5.6240   -0.9090 hn        1 LIG      0.458300
     51 H19        -5.1890   -3.9590   -0.9020 hn        1 LIG      0.458300
     52 H20        -3.0330   -0.0200    0.7110 h5        1 LIG      0.090800
@<TRIPOS>BOND
     1    1    2 2   
     2    2    3 2   
     3    2    4 1   
     4    2   13 1   
     5    4    5 1   
     6    5    6 2   
     7    5    7 1   
     8    7    8 1   
     9    7    9 1   
    10    9   10 1   
    11   10   11 2   
    12   10   12 1   
    13   13   14 1   
    14   14   15 1   
    15   15   16 1   
    16   15   21 1   
    17   16   17 1   
    18   16   18 1   
    19   18   19 1   
    20   18   20 1   
    21   20   21 1   
    22   20   22 1   
    23   22   23 1   
    24   22   31 1   
    25   23   24 ar  
    26   23   29 ar  
    27   24   25 ar  
    28   25   26 ar  
    29   26   27 ar  
    30   27   28 1   
    31   27   29 ar  
    32   29   30 1   
    33   30   31 2   
    34    4   32 1   
    35    7   33 1   
    36    8   34 1   
    37    8   35 1   
    38    8   36 1   
    39    9   37 1   
    40    9   38 1   
    41   12   39 1   
    42   12   40 1   
    43   14   41 1   
    44   14   42 1   
    45   15   43 1   
    46   16   44 1   
    47   17   45 1   
    48   18   46 1   
    49   19   47 1   
    50   20   48 1   
    51   25   49 1   
    52   28   50 1   
    53   28   51 1   
    54   31   52 1   
@<TRIPOS>SUBSTRUCTURE
     1 LIG         1 TEMP              0 ****  ****    0 ROOT
