@<TRIPOS>MOLECULE
TSA
   26    27     1     0     0
SMALL
bcc


@<TRIPOS>ATOM
      1 C           0.0830    0.1400   -1.1070 c3        1 LIG     -0.138800
      2 C1         -0.3270   -1.0870   -0.3320 c2        1 LIG     -0.082200
      3 C2          0.0580   -1.3110    0.8820 c2        1 LIG     -0.256200
      4 C3          0.9730   -0.4230    1.6690 c3        1 LIG      0.130300
      5 O           2.2180   -1.0940    1.8670 oh        1 LIG     -0.630800
      6 C4          1.2280    0.8940    0.9520 c3        1 LIG      0.132100
      7 C5          1.4210    0.6450   -0.5410 c3        1 LIG     -0.084400
      8 O1          0.2100    1.8410    1.2030 os        1 LIG     -0.420600
      9 C6         -1.0360    1.3590    0.7180 c3        1 LIG      0.033100
     10 C7         -0.9660    1.2300   -0.8080 c3        1 LIG     -0.061400
     11 C8          0.1890   -0.1530   -2.5810 c         1 LIG      0.921600
     12 O2          1.2420    0.0010   -3.1530 o         1 LIG     -0.859300
     13 O3         -0.8850   -0.5880   -3.2580 o         1 LIG     -0.859300
     14 C9         -1.3390    0.0270    1.3550 c         1 LIG      0.901600
     15 O4         -0.9750   -0.1980    2.4840 o         1 LIG     -0.858800
     16 O5         -2.0150   -0.9060    0.6670 o         1 LIG     -0.858800
     17 H          -0.9420   -1.7780   -0.7900 ha        1 LIG      0.139000
     18 H1         -0.2910   -2.1660    1.3430 ha        1 LIG      0.096000
     19 H2          0.5040   -0.2080    2.6070 h1        1 LIG      0.146700
     20 H3          2.6260   -1.2790    1.0070 ho        1 LIG      0.373000
     21 H4          2.1300    1.3190    1.3420 h1        1 LIG      0.029700
     22 H5          1.7030    1.5550   -1.0290 hc        1 LIG      0.039200
     23 H6          2.1940   -0.0770   -0.7040 hc        1 LIG      0.039200
     24 H7         -1.8200    2.0420    0.9700 h1        1 LIG      0.027700
     25 H8         -1.9200    0.9430   -1.1990 hc        1 LIG      0.051200
     26 H9         -0.6980    2.1600   -1.2630 hc        1 LIG      0.051200
@<TRIPOS>BOND
     1    1    2 1   
     2    1    7 1   
     3    1   10 1   
     4    1   11 1   
     5    2    3 2   
     6    3    4 1   
     7    4    5 1   
     8    4    6 1   
     9    6    7 1   
    10    6    8 1   
    11    8    9 1   
    12    9   10 1   
    13    9   14 1   
    14   11   12 1   
    15   11   13 1   
    16   14   15 1   
    17   14   16 1   
    18    2   17 1   
    19    3   18 1   
    20    4   19 1   
    21    5   20 1   
    22    6   21 1   
    23    7   22 1   
    24    7   23 1   
    25    9   24 1   
    26   10   25 1   
    27   10   26 1   
@<TRIPOS>SUBSTRUCTURE
     1 LIG         1 TEMP              0 ****  ****    0 ROOT
