@<TRIPOS>MOLECULE
DDZ
   15    14     1     0     0
SMALL
bcc


@<TRIPOS>ATOM
      1 N          -0.1460    1.8970    0.3490 N.4       1 LIG     -0.815600
      2 CA         -0.0470    0.4370    0.4850 C.3       1 LIG     -0.143500
      3 C           1.3150   -0.0190    0.0310 C.        1 LIG      0.938600
      4 O           1.9820    0.6890   -0.6850 O.3       1 LIG     -0.759300
      5 O1         -1.1020   -1.6400   -0.1560 O.h       1 LIG     -0.647300
      6 OXT        -2.4050    0.2910   -0.0250 O.h       1 LIG     -0.647300
      7 C1         -1.1220   -0.2290   -0.3770 C.3       1 LIG      0.370900
      8 O2          1.7880   -1.2120    0.4230 O.3       1 LIG     -0.759300
      9 H1          0.5700    2.3410    0.9230 H         1 LIG      0.450133
     10 H2         -1.0680    2.2050    0.6570 H         1 LIG      0.450133
     11 H3         -0.0090    2.1580   -0.6280 H         1 LIG      0.450133
     12 HA         -0.1910    0.1640    1.5090 H         1 LIG      0.104700
     13 H          -1.7040   -2.1940   -0.6130 H         1 LIG      0.466000
     14 HXT        -2.5790    1.2070   -0.1140 H         1 LIG      0.466000
     15 H4         -0.9270   -0.0270   -1.4100 H         1 LIG      0.074700
@<TRIPOS>BOND
     1    1    2 1   
     2    2    3 1   
     3    2    7 1   
     4    3    4 1   
     5    3    8 1   
     6    5    7 1   
     7    6    7 1   
     8    1    9 1   
     9    1   10 1   
    10    1   11 1   
    11    2   12 1   
    12    5   13 1   
    13    6   14 1   
    14    7   15 1   
@<TRIPOS>SUBSTRUCTURE
     1 LIG         1 TEMP              0 ****  ****    0 ROOT
