@<TRIPOS>MOLECULE
7MX
   24    24     1     0     0
SMALL
bcc


@<TRIPOS>ATOM
      1 C          -4.6600    0.1890    0.0020 C.3       1 LIG     -0.101100
      2 C1         -3.5690   -0.8830    0.0010 C.3       1 LIG      0.140400
      3 O          -2.2640   -0.2470    0.0020 O.2       1 LIG     -0.420900
      4 C2         -1.1870   -1.0580    0.0000 C.        1 LIG      0.664300
      5 O1         -1.3350   -2.2640   -0.0020 O.3       1 LIG     -0.558000
      6 C3          0.1680   -0.4820    0.0010 C.c       1 LIG     -0.247200
      7 C4          1.2750   -1.3070   -0.0000 C.d       1 LIG      0.085600
      8 N           2.5150   -0.7850    0.0000 N.        1 LIG     -0.336000
      9 C5          3.6740   -1.6810   -0.0010 C.3       1 LIG      0.053300
     10 C6          2.7090    0.5470    0.0020 C.        1 LIG      0.694700
     11 O2          3.8440    0.9930    0.0010 O.3       1 LIG     -0.616500
     12 C7          1.6130    1.4280    0.0020 C.d       1 LIG     -0.273200
     13 C8          0.3480    0.9250   -0.0020 C.c       1 LIG      0.150400
     14 Cl         -1.0240    1.9890   -0.0020 C.l       1 LIG     -0.053400
     15 H          -5.6210   -0.2810    0.0010 H         1 LIG      0.049700
     16 H1         -4.5610    0.8000   -0.8710 H         1 LIG      0.049700
     17 H2         -4.5610    0.7980    0.8760 H         1 LIG      0.049700
     18 H3         -3.6690   -1.4940    0.8740 H         1 LIG      0.053200
     19 H4         -3.6680   -1.4910   -0.8740 H         1 LIG      0.053200
     20 H5          1.1500   -2.3320   -0.0010 H         1 LIG      0.180000
     21 H6          3.3390   -2.6970   -0.0030 H         1 LIG      0.067367
     22 H7          4.2640   -1.5010    0.8730 H         1 LIG      0.067367
     23 H8          4.2650   -1.4990   -0.8740 H         1 LIG      0.067367
     24 H9          1.7660    2.4490    0.0050 H         1 LIG      0.181000
@<TRIPOS>BOND
     1    2    3 1   
     2    2    1 1   
     3    4    3 1   
     4    5    4 2   
     5    6    4 1   
     6    6    7 2   
     7    8    7 1   
     8    8    9 1   
     9   10    8 1   
    10   11   10 2   
    11   12   13 2   
    12   12   10 1   
    13   13    6 1   
    14   14   13 1   
    15    1   15 1   
    16    1   16 1   
    17    1   17 1   
    18    2   18 1   
    19    2   19 1   
    20    7   20 1   
    21    9   21 1   
    22    9   22 1   
    23    9   23 1   
    24   12   24 1   
@<TRIPOS>SUBSTRUCTURE
     1 LIG         1 TEMP              0 ****  ****    0 ROOT
