@<TRIPOS>MOLECULE
FDA
   86    91     1     0     0
SMALL
bcc


@<TRIPOS>ATOM
      1 P          -1.6680   -0.5760   -3.2370 p5        1 LIG      1.614800
      2 O          -0.8120   -1.7760   -3.3780 o         1 LIG     -0.876500
      3 O1         -3.1900   -1.0290   -2.9730 o         1 LIG     -0.876500
      4 O2         -1.5950    0.2960   -4.5880 os        1 LIG     -0.583200
      5 C          -2.0660   -0.5400   -5.6470 c3        1 LIG      0.195400
      6 C1         -2.0220    0.2320   -6.9660 c3        1 LIG      0.081100
      7 O3         -0.6670    0.6060   -7.2690 os        1 LIG     -0.432600
      8 C2         -2.5210   -0.6640   -8.1160 c3        1 LIG      0.090100
      9 O4         -3.6700   -0.0920   -8.7430 oh        1 LIG     -0.601800
     10 C3         -1.3270   -0.7070   -9.1050 c3        1 LIG      0.071100
     11 O5         -1.7820   -0.6180  -10.4560 oh        1 LIG     -0.617800
     12 C4         -0.5280    0.5590   -8.7050 c3        1 LIG      0.251800
     13 N           0.8800    0.4250   -9.0830 na        1 LIG     -0.272000
     14 C5          1.8590   -0.1710   -8.3460 cc        1 LIG      0.456700
     15 N1          2.9930   -0.1110   -8.9820 nd        1 LIG     -0.582100
     16 C6          2.8140    0.5250  -10.1650 ca        1 LIG     -0.198200
     17 C7          3.6530    0.8720  -11.2370 ca        1 LIG      0.701200
     18 N2          4.9990    0.5510  -11.2160 nh        1 LIG     -0.927500
     19 N3          3.1230    1.5150  -12.2730 nb        1 LIG     -0.799000
     20 C8          1.8400    1.8250  -12.3020 ca        1 LIG      0.645900
     21 N4          1.0170    1.5210  -11.3200 nb        1 LIG     -0.718000
     22 C9          1.4550    0.8720  -10.2460 ca        1 LIG      0.442800
     23 N5          2.5430   -1.3580    7.4320 n         1 LIG     -0.460100
     24 C10         3.8640   -1.4050    7.6910 c         1 LIG      0.812500
     25 O6          4.5630   -2.1960    7.0880 o         1 LIG     -0.669500
     26 N6          4.4220   -0.5910    8.6050 n         1 LIG     -0.587500
     27 C11         3.6690    0.2940    9.2880 c         1 LIG      0.737100
     28 O7          4.1810    1.0300   10.1150 o         1 LIG     -0.672500
     29 C12         2.2900    0.3620    9.0370 cc        1 LIG     -0.326900
     30 N7          1.4720    1.2810    9.7400 na        1 LIG     -0.154100
     31 C13         0.0790    1.1270    9.6750 ca        1 LIG     -0.037300
     32 C14        -0.7500    1.8130   10.5440 ca        1 LIG     -0.164000
     33 C15        -2.1230    1.6440   10.4620 ca        1 LIG     -0.091300
     34 C16        -3.0290    2.3880   11.4080 c3        1 LIG     -0.039800
     35 C17        -2.6630    0.7900    9.5200 ca        1 LIG     -0.069300
     36 C18        -4.1570    0.6110    9.4390 c3        1 LIG     -0.059800
     37 C19        -1.8370    0.1050    8.6440 ca        1 LIG     -0.108000
     38 C20        -0.4660    0.2690    8.7180 ca        1 LIG      0.007700
     39 N8          0.3860   -0.4190    7.8410 na        1 LIG     -0.121100
     40 C21         1.7370   -0.4710    8.1040 cd        1 LIG      0.221300
     41 C22        -0.1580   -1.0800    6.6530 c3        1 LIG     -0.045700
     42 C23        -0.0380   -0.1440    5.4480 c3        1 LIG      0.158100
     43 O8         -0.8520    1.0110    5.6600 oh        1 LIG     -0.628800
     44 C24        -0.5060   -0.8730    4.1870 c3        1 LIG      0.065100
     45 O9          0.3070   -2.0280    3.9750 oh        1 LIG     -0.628800
     46 C25        -0.3860    0.0620    2.9830 c3        1 LIG      0.099100
     47 O10        -1.2000    1.2180    3.1950 oh        1 LIG     -0.618800
     48 C26        -0.8540   -0.6660    1.7220 c3        1 LIG      0.150400
     49 O11        -0.7420    0.2080    0.5970 os        1 LIG     -0.601200
     50 P1         -1.2480   -0.6190   -0.6870 p5        1 LIG      1.619800
     51 O12        -0.4000   -1.8180   -0.8670 o         1 LIG     -0.884500
     52 O13        -2.7770   -1.0720   -0.4650 o         1 LIG     -0.884500
     53 O14        -1.1490    0.3100   -1.9970 os        1 LIG     -0.813800
     54 H          -3.0730   -0.8400   -5.4430 h1        1 LIG      0.039700
     55 H1         -1.4420   -1.4070   -5.7210 h1        1 LIG      0.039700
     56 H2         -2.6410    1.0990   -6.8670 h1        1 LIG      0.067700
     57 H3         -2.8160   -1.6360   -7.7800 h1        1 LIG      0.143700
     58 H4         -3.4530    0.7960   -9.0670 ho        1 LIG      0.393000
     59 H5         -0.7560   -1.6110   -9.0550 h1        1 LIG      0.132700
     60 H6         -2.3110    0.1880  -10.5670 ho        1 LIG      0.416000
     61 H7         -0.8820    1.4450   -9.1890 h2        1 LIG      0.099700
     62 H8          1.7220   -0.6060   -7.4200 h5        1 LIG      0.173800
     63 H9          5.3800    0.0750  -10.4430 hn        1 LIG      0.412800
     64 H10         5.5760    0.7990  -11.9740 hn        1 LIG      0.412800
     65 H11         1.4680    2.3240  -13.1250 h5        1 LIG      0.029100
     66 H12         2.1540   -1.9620    6.7590 hn        1 LIG      0.381500
     67 H13         5.3900   -0.6420    8.7770 hn        1 LIG      0.340500
     68 H14         1.8730    2.0120   10.2630 hn        1 LIG      0.227700
     69 H15        -0.3480    2.4480   11.2510 ha        1 LIG      0.119000
     70 H16        -2.4400    2.9970   12.0610 hc        1 LIG      0.033033
     71 H17        -3.5940    1.6870   11.9870 hc        1 LIG      0.033033
     72 H18        -3.6970    3.0080   10.8480 hc        1 LIG      0.033033
     73 H19        -4.6290    1.2130   10.1870 hc        1 LIG      0.054033
     74 H20        -4.4020   -0.4180    9.6020 hc        1 LIG      0.054033
     75 H21        -4.5000    0.9110    8.4710 hc        1 LIG      0.054033
     76 H22        -2.2440   -0.5270    7.9370 ha        1 LIG      0.231000
     77 H23        -1.1880   -1.3190    6.8180 h1        1 LIG      0.105700
     78 H24         0.3910   -1.9790    6.4620 h1        1 LIG      0.105700
     79 H25         0.9820    0.1550    5.3290 h1        1 LIG      0.061700
     80 H26        -1.7770    0.7390    5.7680 ho        1 LIG      0.475000
     81 H27        -1.5260   -1.1720    4.3060 h1        1 LIG      0.081700
     82 H28         1.2320   -1.7570    3.8670 ho        1 LIG      0.402000
     83 H29         0.6350    0.3600    2.8640 h1        1 LIG      0.044700
     84 H30        -2.1250    0.9470    3.3030 ho        1 LIG      0.436000
     85 H31        -1.8750   -0.9650    1.8410 h1        1 LIG      0.048700
     86 H32        -0.2450   -1.5310    1.5630 h1        1 LIG      0.048700
@<TRIPOS>BOND
     1    1    2 1   
     2    1    3 1   
     3    1    4 1   
     4    1   53 1   
     5    4    5 1   
     6    5    6 1   
     7    6    7 1   
     8    6    8 1   
     9    7   12 1   
    10    8    9 1   
    11    8   10 1   
    12   10   11 1   
    13   10   12 1   
    14   12   13 1   
    15   13   14 1   
    16   13   22 1   
    17   14   15 2   
    18   15   16 1   
    19   16   17 ar  
    20   16   22 ar  
    21   17   18 1   
    22   17   19 ar  
    23   19   20 ar  
    24   20   21 ar  
    25   21   22 ar  
    26   23   24 1   
    27   23   40 1   
    28   24   25 2   
    29   24   26 1   
    30   26   27 1   
    31   27   28 2   
    32   27   29 1   
    33   29   30 ar  
    34   29   40 ar  
    35   30   31 ar  
    36   31   32 ar  
    37   31   38 ar  
    38   32   33 ar  
    39   33   34 1   
    40   33   35 ar  
    41   35   36 1   
    42   35   37 ar  
    43   37   38 ar  
    44   38   39 ar  
    45   39   40 ar  
    46   39   41 1   
    47   41   42 1   
    48   42   43 1   
    49   42   44 1   
    50   44   45 1   
    51   44   46 1   
    52   46   47 1   
    53   46   48 1   
    54   48   49 1   
    55   49   50 1   
    56   50   51 1   
    57   50   52 1   
    58   50   53 1   
    59    5   54 1   
    60    5   55 1   
    61    6   56 1   
    62    8   57 1   
    63    9   58 1   
    64   10   59 1   
    65   11   60 1   
    66   12   61 1   
    67   14   62 1   
    68   18   63 1   
    69   18   64 1   
    70   20   65 1   
    71   23   66 1   
    72   26   67 1   
    73   30   68 1   
    74   32   69 1   
    75   34   70 1   
    76   34   71 1   
    77   34   72 1   
    78   36   73 1   
    79   36   74 1   
    80   36   75 1   
    81   37   76 1   
    82   41   77 1   
    83   41   78 1   
    84   42   79 1   
    85   43   80 1   
    86   44   81 1   
    87   45   82 1   
    88   46   83 1   
    89   47   84 1   
    90   48   85 1   
    91   48   86 1   
@<TRIPOS>SUBSTRUCTURE
     1 LIG         1 TEMP              0 ****  ****    0 ROOT
