@<TRIPOS>MOLECULE
F9N
   68    71     1     0     0
SMALL
bcc


@<TRIPOS>ATOM
      1 C          -6.3000    1.8960    2.3350 c3        1 LIG     -0.073400
      2 C1         -8.7500    1.4170    2.2210 c3        1 LIG     -0.079400
      3 C2         -7.1770    0.2630    0.6600 c3        1 LIG     -0.073400
      4 C3         -2.9110   -1.2090   -4.3000 cc        1 LIG      0.452700
      5 C4         -1.7900   -1.2250   -2.4430 ca        1 LIG      0.587300
      6 C5          0.9450   -2.8070   -0.3410 ca        1 LIG     -0.091000
      7 C6          3.2920   -3.0690    0.0560 ca        1 LIG     -0.019000
      8 C7          4.8140    0.9240    0.5170 c3        1 LIG      0.223800
      9 O           4.3500   -0.8040    2.9160 o         1 LIG     -0.673800
     10 S           4.7500   -1.4890    1.7370 sy        1 LIG      1.534200
     11 C8          3.2680   -1.9990    0.9310 ca        1 LIG     -0.398500
     12 C9          2.0830   -1.3360    1.1820 ca        1 LIG     -0.020000
     13 C10         0.9170   -1.7350    0.5420 ca        1 LIG      0.118600
     14 N          -0.2830   -1.0590    0.7850 nh        1 LIG     -0.704300
     15 C11        -1.2200   -0.9230   -0.2280 ca        1 LIG      0.904900
     16 N1         -2.3960   -0.3770    0.0570 nb        1 LIG     -0.803000
     17 C12        -3.3260   -0.2260   -0.8790 ca        1 LIG      0.744600
     18 O1         -4.5240    0.3330   -0.5800 os        1 LIG     -0.445100
     19 C13        -4.7280    0.7420    0.7740 c3        1 LIG      0.140400
     20 C14        -6.1270    1.3450    0.9190 c3        1 LIG     -0.073700
     21 C15        -7.6990    2.4990    2.4800 c3        1 LIG     -0.076900
     22 C16        -8.5760    0.8660    0.8050 c3        1 LIG     -0.076900
     23 C17        -3.0440   -0.6520   -2.1770 ca        1 LIG     -0.369800
     24 N2         -3.7310   -0.6620   -3.3750 na        1 LIG     -0.217300
     25 N3         -1.7740   -1.5380   -3.7520 nd        1 LIG     -0.713700
     26 N4         -0.9110   -1.3410   -1.4430 nb        1 LIG     -0.759000
     27 C18         2.1310   -3.4720   -0.5800 ca        1 LIG     -0.127000
     28 N5          5.4730   -0.3610    0.7640 n3        1 LIG     -0.926100
     29 C19         5.8220    1.9080   -0.0810 c3        1 LIG     -0.128400
     30 C20         5.1340    3.2490   -0.3390 c3        1 LIG      0.104800
     31 N6          6.1020    4.1940   -0.9140 n4        1 LIG     -0.676400
     32 C21         6.5330    3.7590   -2.2490 c3        1 LIG      0.089600
     33 C22         5.5490    5.5540   -0.9560 c3        1 LIG      0.089600
     34 O2          5.6100   -2.6200    1.7490 o         1 LIG     -0.673800
     35 H          -5.5650    2.6520    2.5160 hc        1 LIG      0.043450
     36 H1         -6.1780    1.1040    3.0440 hc        1 LIG      0.043450
     37 H2         -8.6280    0.6250    2.9300 hc        1 LIG      0.046700
     38 H3         -9.7280    1.8390    2.3220 hc        1 LIG      0.046700
     39 H4         -7.0550   -0.1220   -0.3310 hc        1 LIG      0.043450
     40 H5         -7.0550   -0.5300    1.3680 hc        1 LIG      0.043450
     41 H6         -3.1500   -1.3460   -5.2950 h5        1 LIG      0.081800
     42 H7          0.0800   -3.1060   -0.8180 ha        1 LIG      0.152000
     43 H8          4.1770   -3.5680   -0.1230 ha        1 LIG      0.160000
     44 H9          4.0040    0.7830   -0.1680 h1        1 LIG      0.069700
     45 H10         4.4380    1.3150    1.4390 h1        1 LIG      0.069700
     46 H11         2.0640   -0.5450    1.8440 ha        1 LIG      0.167000
     47 H12        -0.4630   -0.6800    1.6760 hn        1 LIG      0.449800
     48 H13        -3.9950    1.4740    1.0400 h1        1 LIG      0.062700
     49 H14        -4.6360   -0.1060    1.4210 h1        1 LIG      0.062700
     50 H15        -6.2500    2.1380    0.2110 hc        1 LIG      0.066700
     51 H16        -7.8210    3.2920    1.7720 hc        1 LIG      0.045700
     52 H17        -7.8200    2.8840    3.4710 hc        1 LIG      0.045700
     53 H18        -8.6980    1.6590    0.0970 hc        1 LIG      0.045700
     54 H19        -9.3110    0.1090    0.6240 hc        1 LIG      0.045700
     55 H20        -4.6460   -0.3330   -3.5270 hn        1 LIG      0.334700
     56 H21         2.1520   -4.2700   -1.2340 ha        1 LIG      0.160000
     57 H22         5.6100   -0.8010   -0.1460 hn        1 LIG      0.458800
     58 H23         6.1980    1.5170   -1.0030 hc        1 LIG      0.077700
     59 H24         6.6320    2.0490    0.6040 hc        1 LIG      0.077700
     60 H25         4.7580    3.6400    0.5830 hx        1 LIG      0.117700
     61 H26         4.3240    3.1080   -1.0230 hx        1 LIG      0.117700
     62 H27         6.9230    4.2080   -0.3090 hn        1 LIG      0.482800
     63 H28         5.6890    3.7350   -2.9060 hx        1 LIG      0.099367
     64 H29         6.9630    2.7810   -2.1840 hx        1 LIG      0.099367
     65 H30         7.2610    4.4440   -2.6300 hx        1 LIG      0.099367
     66 H31         4.6840    5.5680   -1.5850 hx        1 LIG      0.099367
     67 H32         6.2850    6.2260   -1.3460 hx        1 LIG      0.099367
     68 H33         5.2760    5.8590    0.0330 hx        1 LIG      0.099367
@<TRIPOS>BOND
     1    2   22 1   
     2    3   22 1   
     3    4   24 1   
     4    5   26 ar  
     5    5   23 ar  
     6    6   27 ar  
     7    8   29 1   
     8   10    9 2   
     9   10   28 1   
    10   11   10 1   
    11   11    7 ar  
    12   12   11 ar  
    13   13   12 ar  
    14   13    6 ar  
    15   14   15 1   
    16   14   13 1   
    17   15   16 ar  
    18   16   17 ar  
    19   17   18 1   
    20   19   18 1   
    21   19   20 1   
    22   20    1 1   
    23   20    3 1   
    24   21    1 1   
    25   21    2 1   
    26   23   17 ar  
    27   24   23 1   
    28   25    4 2   
    29   25    5 1   
    30   26   15 ar  
    31   27    7 ar  
    32   28    8 1   
    33   29   30 1   
    34   30   31 1   
    35   31   32 1   
    36   31   33 1   
    37   34   10 2   
    38    1   35 1   
    39    1   36 1   
    40    2   37 1   
    41    2   38 1   
    42    3   39 1   
    43    3   40 1   
    44    4   41 1   
    45    6   42 1   
    46    7   43 1   
    47    8   44 1   
    48    8   45 1   
    49   12   46 1   
    50   14   47 1   
    51   19   48 1   
    52   19   49 1   
    53   20   50 1   
    54   21   51 1   
    55   21   52 1   
    56   22   53 1   
    57   22   54 1   
    58   24   55 1   
    59   27   56 1   
    60   28   57 1   
    61   29   58 1   
    62   29   59 1   
    63   30   60 1   
    64   30   61 1   
    65   31   62 1   
    66   32   63 1   
    67   32   64 1   
    68   32   65 1   
    69   33   66 1   
    70   33   67 1   
    71   33   68 1   
@<TRIPOS>SUBSTRUCTURE
     1 LIG         1 TEMP              0 ****  ****    0 ROOT
