@<TRIPOS>MOLECULE
CMP
   33    36     1     0     0
SMALL
bcc


@<TRIPOS>ATOM
      1 P           0.0350    0.4570   -4.1290 p5        1 LIG      1.416800
      2 O           1.1270    1.4480   -4.0100 o         1 LIG     -0.801500
      3 O1         -0.7730    0.7230   -5.4960 o         1 LIG     -0.801500
      4 O2          0.6640   -1.0200   -4.1670 os        1 LIG     -0.567200
      5 C           1.2910   -1.2820   -2.9030 c3        1 LIG      0.196400
      6 C1          0.2290   -1.1570   -1.8260 c3        1 LIG      0.033100
      7 O3          0.6560   -1.4530   -0.4970 os        1 LIG     -0.416600
      8 C2         -0.1930    0.3320   -1.7310 c3        1 LIG      0.104100
      9 O4         -0.9700    0.6240   -2.8760 os        1 LIG     -0.539200
     10 C3         -0.9540    0.3400   -0.3940 c3        1 LIG      0.117100
     11 O5         -2.3530    0.1440   -0.6100 oh        1 LIG     -0.606800
     12 C4         -0.3310   -0.8510    0.3720 c3        1 LIG      0.221800
     13 N           0.3090   -0.3740    1.6000 na        1 LIG     -0.259000
     14 C5          1.6020    0.0350    1.7280 cc        1 LIG      0.436700
     15 N1          1.8360    0.3930    2.9580 nd        1 LIG     -0.567100
     16 C6          0.7080    0.2410    3.6930 ca        1 LIG     -0.220200
     17 C7          0.3720    0.4520    5.0410 ca        1 LIG      0.731200
     18 N2          1.3090    0.9380    5.9370 nh        1 LIG     -0.946500
     19 N3         -0.8670    0.1800    5.4340 nb        1 LIG     -0.799000
     20 C8         -1.7670   -0.2820    4.5870 ca        1 LIG      0.666900
     21 N4         -1.4960   -0.5010    3.3170 nb        1 LIG     -0.717000
     22 C9         -0.2820   -0.2580    2.8330 ca        1 LIG      0.457800
     23 H           2.0720   -0.5710   -2.7290 h1        1 LIG      0.043200
     24 H1          1.7200   -2.2620   -2.8940 h1        1 LIG      0.043200
     25 H2         -0.5270   -1.8550   -2.1200 h1        1 LIG      0.066700
     26 H3          0.5750    1.0770   -1.7290 h1        1 LIG      0.083700
     27 H4         -0.8710    1.2650    0.1380 h1        1 LIG      0.073700
     28 H5         -2.4930   -0.6860   -1.0930 ho        1 LIG      0.440000
     29 H6         -1.0830   -1.5630    0.6420 h2        1 LIG      0.114700
     30 H7          2.2940    0.0580    0.9630 h5        1 LIG      0.095800
     31 H8          2.2240    1.1360    5.6330 hn        1 LIG      0.428800
     32 H9          1.0600    1.0860    6.8780 hn        1 LIG      0.428800
     33 H10        -2.7190   -0.4790    4.9330 h5        1 LIG      0.042100
@<TRIPOS>BOND
     1    1    2 1   
     2    1    3 1   
     3    1    4 1   
     4    1    9 1   
     5    4    5 1   
     6    5    6 1   
     7    6    7 1   
     8    6    8 1   
     9    7   12 1   
    10    8    9 1   
    11    8   10 1   
    12   10   11 1   
    13   10   12 1   
    14   12   13 1   
    15   13   14 1   
    16   13   22 1   
    17   14   15 2   
    18   15   16 1   
    19   16   17 ar  
    20   16   22 ar  
    21   17   18 1   
    22   17   19 ar  
    23   19   20 ar  
    24   20   21 ar  
    25   21   22 ar  
    26    5   23 1   
    27    5   24 1   
    28    6   25 1   
    29    8   26 1   
    30   10   27 1   
    31   11   28 1   
    32   12   29 1   
    33   14   30 1   
    34   18   31 1   
    35   18   32 1   
    36   20   33 1   
@<TRIPOS>SUBSTRUCTURE
     1 LIG         1 TEMP              0 ****  ****    0 ROOT
