@<TRIPOS>MOLECULE
CVI
   58    60     1     0     0
SMALL
bcc


@<TRIPOS>ATOM
      1 C           0.0000    0.0000    0.0000 ce        1 LIG      0.306600
      2 C1          1.2800    0.7100    0.0190 cd        1 LIG     -0.219000
      3 C2          2.1610    0.6020   -1.0700 cd        1 LIG     -0.009000
      4 C3          3.3520    1.2650   -1.0490 cc        1 LIG     -0.323600
      5 C4          3.6970    2.0510    0.0550 cc        1 LIG      0.416900
      6 C5          2.8250    2.1560    1.1440 cc        1 LIG     -0.323600
      7 C6          1.6300    1.5000    1.1270 cd        1 LIG     -0.009000
      8 C7         -1.2550    0.7540   -0.0180 ca        1 LIG     -0.230800
      9 C8         -2.1390    0.6750    1.0710 ca        1 LIG     -0.009000
     10 C9         -3.3060    1.3780    1.0510 ca        1 LIG     -0.237000
     11 C10        -3.6240    2.1780   -0.0520 ca        1 LIG      0.270600
     12 C11        -2.7460    2.2580   -1.1380 ca        1 LIG     -0.237000
     13 C12        -1.5750    1.5620   -1.1220 ca        1 LIG     -0.009000
     14 C13        -0.0250   -1.4640   -0.0010 ca        1 LIG     -0.230800
     15 C14        -1.2530   -2.1470   -0.0190 ca        1 LIG     -0.009000
     16 C15        -1.2730   -3.5090   -0.0210 ca        1 LIG     -0.237000
     17 C16        -0.0730   -4.2280   -0.0030 ca        1 LIG      0.270600
     18 C17         1.1510   -3.5510    0.0150 ca        1 LIG     -0.237000
     19 C18         1.1780   -2.1890    0.0110 ca        1 LIG     -0.009000
     20 C19         5.8130    2.6030   -1.0640 c3        1 LIG      0.013600
     21 C20         5.2590    3.5400    1.2290 c3        1 LIG      0.013600
     22 C21        -5.7790    2.7010    1.0050 c3        1 LIG      0.191100
     23 C22        -5.0760    3.8190   -1.1610 c3        1 LIG      0.191100
     24 C23        -1.3700   -6.3090   -0.1440 c3        1 LIG      0.191100
     25 C24         1.1510   -6.3530    0.1360 c3        1 LIG      0.191100
     26 N           4.8960    2.7160    0.0730 nh        1 LIG     -0.267100
     27 N1         -4.7990    2.8830   -0.0690 nh        1 LIG     -0.649000
     28 N2         -0.0970   -5.5990   -0.0040 nh        1 LIG     -0.649000
     29 H           1.9070    0.0220   -1.8850 ha        1 LIG      0.150000
     30 H1          4.0000    1.1870   -1.8490 ha        1 LIG      0.153000
     31 H2          3.0870    2.7300    1.9610 ha        1 LIG      0.153000
     32 H3          0.9830    1.5840    1.9270 ha        1 LIG      0.150000
     33 H4         -1.9050    0.0850    1.8850 ha        1 LIG      0.150000
     34 H5         -3.9560    1.3200    1.8500 ha        1 LIG      0.153000
     35 H6         -2.9860    2.8450   -1.9520 ha        1 LIG      0.153000
     36 H7         -0.9240    1.6280   -1.9200 ha        1 LIG      0.150000
     37 H8         -2.1390   -1.6170   -0.0310 ha        1 LIG      0.150000
     38 H9         -2.1750   -4.0110   -0.0360 ha        1 LIG      0.153000
     39 H10         2.0350   -4.0840    0.0310 ha        1 LIG      0.153000
     40 H11         2.0820   -1.6900    0.0170 ha        1 LIG      0.150000
     41 H12         5.3820    1.9650   -1.8070 h1        1 LIG      0.057033
     42 H13         6.7420    2.1880   -0.7330 h1        1 LIG      0.057033
     43 H14         5.9840    3.5730   -1.4820 h1        1 LIG      0.057033
     44 H15         4.4730    3.5020    1.9540 h1        1 LIG      0.057033
     45 H16         5.4050    4.5520    0.9140 h1        1 LIG      0.057033
     46 H17         6.1630    3.1670    1.6630 h1        1 LIG      0.057033
     47 H18        -5.4090    1.9850    1.7080 h1        1 LIG      0.057033
     48 H19        -6.7010    2.3500    0.5910 h1        1 LIG      0.057033
     49 H20        -5.9430    3.6350    1.5000 h1        1 LIG      0.057033
     50 H21        -4.2550    3.8200   -1.8470 h1        1 LIG      0.057033
     51 H22        -5.2090    4.8030   -0.7620 h1        1 LIG      0.057033
     52 H23        -5.9670    3.5180   -1.6720 h1        1 LIG      0.057033
     53 H24        -2.1660   -5.6000   -0.2340 h1        1 LIG      0.057033
     54 H25        -1.5340   -6.9210    0.7180 h1        1 LIG      0.057033
     55 H26        -1.3410   -6.9250   -1.0190 h1        1 LIG      0.057033
     56 H27         1.9710   -5.6720    0.2260 h1        1 LIG      0.057033
     57 H28         1.2930   -6.9710   -0.7260 h1        1 LIG      0.057033
     58 H29         1.1000   -6.9670    1.0110 h1        1 LIG      0.057033
@<TRIPOS>BOND
     1    1    2 2   
     2    1    8 1   
     3    1   14 1   
     4    2    3 1   
     5    2    7 1   
     6    3    4 2   
     7    4    5 1   
     8    5    6 1   
     9    5   26 2   
    10    6    7 2   
    11    8    9 ar  
    12    8   13 ar  
    13    9   10 ar  
    14   10   11 ar  
    15   11   12 ar  
    16   11   27 1   
    17   12   13 ar  
    18   14   15 ar  
    19   14   19 ar  
    20   15   16 ar  
    21   16   17 ar  
    22   17   18 ar  
    23   17   28 1   
    24   18   19 ar  
    25   20   26 1   
    26   21   26 1   
    27   22   27 1   
    28   23   27 1   
    29   24   28 1   
    30   25   28 1   
    31    3   29 1   
    32    4   30 1   
    33    6   31 1   
    34    7   32 1   
    35    9   33 1   
    36   10   34 1   
    37   12   35 1   
    38   13   36 1   
    39   15   37 1   
    40   16   38 1   
    41   18   39 1   
    42   19   40 1   
    43   20   41 1   
    44   20   42 1   
    45   20   43 1   
    46   21   44 1   
    47   21   45 1   
    48   21   46 1   
    49   22   47 1   
    50   22   48 1   
    51   22   49 1   
    52   23   50 1   
    53   23   51 1   
    54   23   52 1   
    55   24   53 1   
    56   24   54 1   
    57   24   55 1   
    58   25   56 1   
    59   25   57 1   
    60   25   58 1   
@<TRIPOS>SUBSTRUCTURE
     1 LIG         1 TEMP              0 ****  ****    0 ROOT
