@<TRIPOS>MOLECULE
SWE
   45    46     1     0     0
SMALL
bcc


@<TRIPOS>ATOM
      1 C           1.0590   -0.9820   -0.9010 c3        1 LIG      0.302900
      2 O          -0.0300   -0.9910    0.0240 os        1 LIG     -0.459600
      3 C1          2.3000   -1.5820   -0.2360 c3        1 LIG      0.102100
      4 O1          2.0070   -2.9070    0.2130 oh        1 LIG     -0.575800
      5 C2          2.7000   -0.7130    0.9610 c3        1 LIG      0.075100
      6 O2          3.9000   -1.2250    1.5430 oh        1 LIG     -0.569800
      7 C3          2.9350    0.7220    0.4790 c3        1 LIG      0.089100
      8 O3          3.2380    1.5570    1.5990 oh        1 LIG     -0.579800
      9 C4          1.6690    1.2330   -0.2130 c3        1 LIG      0.074100
     10 O4          1.3360    0.3630   -1.2970 os        1 LIG     -0.446600
     11 C5          1.9160    2.6450   -0.7500 c3        1 LIG      0.135400
     12 O5          0.7020    3.1670   -1.2930 oh        1 LIG     -0.596800
     13 C6         -1.5130   -1.8470   -1.6990 c3        1 LIG      0.130400
     14 O6         -1.2960   -3.1610   -1.1820 oh        1 LIG     -0.587800
     15 C7         -1.3110   -0.8200   -0.5840 c3        1 LIG      0.266600
     16 O7         -2.3570   -0.9400    0.4050 os        1 LIG     -0.423600
     17 C8         -1.4540    0.6140   -1.1410 c3        1 LIG      0.065100
     18 O8         -2.2530    0.6140   -2.3260 oh        1 LIG     -0.569800
     19 C9         -2.1660    1.3880   -0.0080 c3        1 LIG      0.097100
     20 O9         -1.3420    2.4550    0.4640 oh        1 LIG     -0.575800
     21 C10        -2.3710    0.3260    1.1010 c3        1 LIG      0.056100
     22 C11        -3.7150    0.5350    1.8000 c3        1 LIG      0.133400
     23 O10        -3.8630   -0.4280    2.8460 oh        1 LIG     -0.587800
     24 H           0.8000   -1.5620   -1.7620 h2        1 LIG      0.098700
     25 H1          3.1050   -1.6160   -0.9400 h1        1 LIG      0.088700
     26 H2          1.2780   -2.8780    0.8520 ho        1 LIG      0.432000
     27 H3          1.9200   -0.7250    1.6940 h1        1 LIG      0.097700
     28 H4          4.6100   -1.2160    0.8820 ho        1 LIG      0.407000
     29 H5          3.7540    0.7420   -0.2090 h1        1 LIG      0.080700
     30 H6          2.4970    1.5400    2.2240 ho        1 LIG      0.413000
     31 H7          0.8620    1.2540    0.4890 h1        1 LIG      0.064700
     32 H8          2.6630    2.6100   -1.5150 h1        1 LIG      0.067700
     33 H9          2.2510    3.2760    0.0470 h1        1 LIG      0.067700
     34 H10         0.3990    2.5950   -2.0150 ho        1 LIG      0.412000
     35 H11        -2.5120   -1.7720   -2.0760 h1        1 LIG      0.066700
     36 H12        -0.8180   -1.6560   -2.4900 h1        1 LIG      0.066700
     37 H13        -1.9260   -3.3340   -0.4650 ho        1 LIG      0.418000
     38 H14        -0.5130    1.0480   -1.4090 h1        1 LIG      0.124700
     39 H15        -3.1210    0.2270   -2.1310 ho        1 LIG      0.405000
     40 H16        -3.0850    1.8340   -0.3260 h1        1 LIG      0.100700
     41 H17        -0.4920    2.0980    0.7650 ho        1 LIG      0.424000
     42 H18        -1.6170    0.3810    1.8590 h1        1 LIG      0.087700
     43 H19        -4.5080    0.4160    1.0910 h1        1 LIG      0.055700
     44 H20        -3.7520    1.5210    2.2150 h1        1 LIG      0.055700
     45 H21        -3.8300   -1.3210    2.4700 ho        1 LIG      0.411000
@<TRIPOS>BOND
     1    1    2 1   
     2    1    3 1   
     3    1   10 1   
     4    2   15 1   
     5    3    4 1   
     6    3    5 1   
     7    5    6 1   
     8    5    7 1   
     9    7    8 1   
    10    7    9 1   
    11    9   10 1   
    12    9   11 1   
    13   11   12 1   
    14   13   14 1   
    15   13   15 1   
    16   15   16 1   
    17   15   17 1   
    18   16   21 1   
    19   17   18 1   
    20   17   19 1   
    21   19   20 1   
    22   19   21 1   
    23   21   22 1   
    24   22   23 1   
    25    1   24 1   
    26    3   25 1   
    27    4   26 1   
    28    5   27 1   
    29    6   28 1   
    30    7   29 1   
    31    8   30 1   
    32    9   31 1   
    33   11   32 1   
    34   11   33 1   
    35   12   34 1   
    36   13   35 1   
    37   13   36 1   
    38   14   37 1   
    39   17   38 1   
    40   18   39 1   
    41   19   40 1   
    42   20   41 1   
    43   21   42 1   
    44   22   43 1   
    45   22   44 1   
    46   23   45 1   
@<TRIPOS>SUBSTRUCTURE
     1 LIG         1 TEMP              0 ****  ****    0 ROOT
