@<TRIPOS>MOLECULE
393
   37    38     1     0     0
SMALL
bcc


@<TRIPOS>ATOM
      1 C           6.0210   -2.5460   -4.7410 ca        1 LIG     -0.187200
      2 N           7.0310   -3.5370   -4.8600 no        1 LIG      0.312200
      3 O           8.1640   -3.2030   -5.2820 o         1 LIG     -0.224000
      4 O1          6.7630   -4.7210   -4.5380 o         1 LIG     -0.224000
      5 C1          4.7530   -2.8940   -4.2740 ca        1 LIG     -0.054000
      6 C2          3.7710   -1.9170   -4.1610 ca        1 LIG     -0.090300
      7 C3          2.4060   -2.2910   -3.6590 c3        1 LIG      0.130300
      8 N1          2.3080   -2.1740   -2.2220 n         1 LIG     -0.529900
      9 C4          1.9100   -1.0030   -1.5680 c         1 LIG      0.675700
     10 C5          1.8850   -1.0360   -0.1120 ca        1 LIG     -0.169600
     11 C6          0.9670   -0.2370    0.5690 ca        1 LIG     -0.053000
     12 C7          0.9270   -0.2550    1.9630 ca        1 LIG     -0.188000
     13 C8          1.8060   -1.0710    2.6760 ca        1 LIG      0.065400
     14 Cl          1.7560   -1.0920    4.3960 cl        1 LIG     -0.120400
     15 C9          2.7240   -1.8700    1.9950 ca        1 LIG     -0.209000
     16 C10         2.7630   -1.8530    0.6000 ca        1 LIG      0.187100
     17 O2          3.6680   -2.6400   -0.0470 os        1 LIG     -0.316900
     18 C11         5.0470   -2.4090    0.2350 c3        1 LIG     -0.011600
     19 C12         5.8960   -3.3490   -0.5740 c         1 LIG      0.924600
     20 O3          7.2110   -3.1160   -0.3350 o         1 LIG     -0.821800
     21 O4          5.4830   -4.2060   -1.3410 o         1 LIG     -0.821800
     22 O5          1.6080    0.0360   -2.1790 o         1 LIG     -0.674100
     23 C13         4.0370   -0.5980   -4.5090 ca        1 LIG     -0.075000
     24 C14         5.3050   -0.2510   -4.9760 ca        1 LIG     -0.155000
     25 C15         6.2970   -1.2250   -5.0920 ca        1 LIG     -0.082000
     26 H           4.5460   -3.8710   -4.0140 ha        1 LIG      0.182000
     27 H1          2.2000   -3.3030   -3.9380 h1        1 LIG      0.076200
     28 H2          1.6970   -1.6180   -4.0950 h1        1 LIG      0.076200
     29 H3          2.5330   -2.9600   -1.6740 hn        1 LIG      0.384500
     30 H4          0.3180    0.3670    0.0420 ha        1 LIG      0.150000
     31 H5          0.2470    0.3350    2.4670 ha        1 LIG      0.138000
     32 H6          3.3740   -2.4740    2.5220 ha        1 LIG      0.158000
     33 H7          5.2290   -2.5730    1.2770 h1        1 LIG      0.037700
     34 H8          5.2960   -1.4000   -0.0200 h1        1 LIG      0.037700
     35 H9          3.3010    0.1200   -4.4230 ha        1 LIG      0.179000
     36 H10         5.5090    0.7270   -5.2360 ha        1 LIG      0.136000
     37 H11         7.2350   -0.9680   -5.4380 ha        1 LIG      0.156000
@<TRIPOS>BOND
     1    1    2 1   
     2    1   25 ar  
     3    1    5 ar  
     4    2    3 1   
     5    2    4 1   
     6    5    6 ar  
     7    6   23 ar  
     8    6    7 1   
     9    7    8 1   
    10    8    9 1   
    11    9   22 2   
    12    9   10 1   
    13   10   11 ar  
    14   10   16 ar  
    15   11   12 ar  
    16   12   13 ar  
    17   13   15 ar  
    18   13   14 1   
    19   15   16 ar  
    20   16   17 1   
    21   17   18 1   
    22   18   19 1   
    23   19   21 1   
    24   19   20 1   
    25   23   24 ar  
    26   24   25 ar  
    27    5   26 1   
    28    7   27 1   
    29    7   28 1   
    30    8   29 1   
    31   11   30 1   
    32   12   31 1   
    33   15   32 1   
    34   18   33 1   
    35   18   34 1   
    36   23   35 1   
    37   24   36 1   
    38   25   37 1   
@<TRIPOS>SUBSTRUCTURE
     1 LIG         1 TEMP              0 ****  ****    0 ROOT
