@<TRIPOS>MOLECULE
1KX
   39    42     1     0     0
SMALL
bcc


@<TRIPOS>ATOM
      1 C          -5.8680    1.7780    0.7490 C.x       1 LIG     -0.151400
      2 N          -3.4980    1.0990    0.0570 N.h       1 LIG     -0.812900
      3 O           6.7160    0.9370    0.2740 O.h       1 LIG     -0.602800
      4 C1         -0.2250   -0.5970   -0.0650 C.a       1 LIG      0.491800
      5 N1         -0.6490   -1.8540    0.0240 N.b       1 LIG     -0.789000
      6 C2         -1.1660    0.4450   -0.0580 C.a       1 LIG     -0.261200
      7 N2         -0.4760    1.6080   -0.1590 N.c       1 LIG     -0.540100
      8 C3          0.7980    1.3500   -0.2270 C.d       1 LIG      0.397700
      9 N3          1.0040    0.0030   -0.1680 N.a       1 LIG     -0.264000
     10 C4          2.3010   -0.6780   -0.2140 C.3       1 LIG      0.087200
     11 N4         -2.8640   -1.1700    0.1290 N.b       1 LIG     -0.827000
     12 C5          3.0690   -0.2640   -1.4470 C.2       1 LIG     -0.210200
     13 N5         -2.3440   -3.4450    0.2100 N.h       1 LIG     -0.923500
     14 C6          4.3160   -0.0060   -1.1600 C.2       1 LIG     -0.136200
     15 C7          4.5870   -0.2050    0.3130 C.3       1 LIG     -0.051500
     16 C8          5.4150    0.9580    0.8640 C.3       1 LIG      0.139400
     17 C9          3.1880   -0.2280    0.9700 C.3       1 LIG     -0.099400
     18 C10        -2.5280    0.1120    0.0450 C.a       1 LIG      0.780200
     19 C11        -1.9410   -2.1230    0.1190 C.a       1 LIG      0.910900
     20 C12        -4.9120    0.7350    0.1640 C.x       1 LIG      0.167500
     21 C13        -5.9010    1.4650   -0.7480 C.x       1 LIG     -0.151400
     22 H          -5.4890    2.7190    1.0910 H         1 LIG      0.075700
     23 H1         -6.5920    1.7830    1.5370 H         1 LIG      0.075700
     24 H2         -3.2370    2.0460   -0.0060 H         1 LIG      0.442800
     25 H3          7.2410    1.6740    0.6230 H         1 LIG      0.403000
     26 H4          1.5420    2.0600   -0.3130 H         1 LIG      0.073800
     27 H5          2.1000   -1.7290   -0.1940 H         1 LIG      0.095700
     28 H6          2.6610   -0.1940   -2.3930 H         1 LIG      0.151000
     29 H7         -1.6730   -4.1660    0.2040 H         1 LIG      0.422300
     30 H8         -3.3010   -3.6640    0.2810 H         1 LIG      0.422300
     31 H9          5.0240    0.2940   -1.8490 H         1 LIG      0.155000
     32 H10         5.1410   -1.0990    0.5070 H         1 LIG      0.082700
     33 H11         4.9310    1.8830    0.6290 H         1 LIG      0.027700
     34 H12         5.5030    0.8620    1.9260 H         1 LIG      0.027700
     35 H13         3.1470   -0.9280    1.7780 H         1 LIG      0.063200
     36 H14         2.8950    0.7040    1.4060 H         1 LIG      0.063200
     37 H15        -4.6900   -0.2910    0.3730 H         1 LIG      0.115700
     38 H16        -6.7330    0.9380   -1.1660 H         1 LIG      0.075700
     39 H17        -5.8180    2.0440   -1.6440 H         1 LIG      0.075700
@<TRIPOS>BOND
     1    3   16 1   
     2    4    6 ar  
     3    5    4 ar  
     4    5   19 ar  
     5    6   18 ar  
     6    6    7 1   
     7    8    7 2   
     8    9    4 1   
     9    9    8 1   
    10   10    9 1   
    11   10   17 1   
    12   11   18 ar  
    13   12   10 1   
    14   12   14 2   
    15   13   19 1   
    16   14   15 1   
    17   15   16 1   
    18   17   15 1   
    19   18    2 1   
    20   19   11 ar  
    21   20    1 1   
    22   20    2 1   
    23   20   21 1   
    24   21    1 1   
    25    1   22 1   
    26    1   23 1   
    27    2   24 1   
    28    3   25 1   
    29    8   26 1   
    30   10   27 1   
    31   12   28 1   
    32   13   29 1   
    33   13   30 1   
    34   14   31 1   
    35   15   32 1   
    36   16   33 1   
    37   16   34 1   
    38   17   35 1   
    39   17   36 1   
    40   20   37 1   
    41   21   38 1   
    42   21   39 1   
@<TRIPOS>SUBSTRUCTURE
     1 LIG         1 TEMP              0 ****  ****    0 ROOT
