@<TRIPOS>MOLECULE
IBM
   30    31     1     0     0
SMALL
bcc


@<TRIPOS>ATOM
      1 N          -2.4560   -0.2480   -0.1620 N.a       1 LIG     -0.333900
      2 C          -3.0000    0.0640   -1.3740 C.c       1 LIG      0.386400
      3 N1         -2.0490    0.2600   -2.2400 N.d       1 LIG     -0.569000
      4 C1         -0.8520    0.0840   -1.6310 C.d       1 LIG      0.188800
      5 C2         -1.1050   -0.2450   -0.3050 C.c       1 LIG     -0.009000
      6 N2         -0.0460   -0.4720    0.5430 N.        1 LIG     -0.343000
      7 C3          1.2200   -0.3870    0.1010 C.        1 LIG      0.818500
      8 N3          1.5170   -0.0750   -1.1710 N.        1 LIG     -0.495400
      9 C4          0.5410    0.1670   -2.0720 C.        1 LIG      0.658000
     10 O           0.8130    0.4480   -3.2250 O.3       1 LIG     -0.581500
     11 O1          2.1290   -0.5990    0.8800 O.3       1 LIG     -0.636500
     12 C5          2.9200    0.0000   -1.5870 C.3       1 LIG      0.079300
     13 C6         -0.3020   -0.8170    1.9440 C.3       1 LIG      0.091000
     14 C7         -0.3630    0.4620    2.7800 C.3       1 LIG     -0.091700
     15 C8         -0.6310    0.1020    4.2430 C.3       1 LIG     -0.093100
     16 C9          0.9680    1.2060    2.6740 C.3       1 LIG     -0.093100
     17 H          -2.9530   -0.4400    0.6660 H         1 LIG      0.312700
     18 H1         -4.0100    0.1340   -1.5730 H         1 LIG      0.072100
     19 H2          3.5520   -0.2190   -0.7520 H         1 LIG      0.062700
     20 H3          3.1330    0.9850   -1.9470 H         1 LIG      0.062700
     21 H4          3.0990   -0.7110   -2.3660 H         1 LIG      0.062700
     22 H5          0.4860   -1.4430    2.3070 H         1 LIG      0.075200
     23 H6         -1.2340   -1.3370    2.0190 H         1 LIG      0.075200
     24 H7         -1.1510    1.0880    2.4160 H         1 LIG      0.046700
     25 H8          0.1570   -0.5240    4.6060 H         1 LIG      0.041700
     26 H9         -1.5630   -0.4180    4.3170 H         1 LIG      0.041700
     27 H10        -0.6740    0.9970    4.8280 H         1 LIG      0.041700
     28 H11         1.7560    0.5810    3.0380 H         1 LIG      0.041700
     29 H12         0.9240    2.1010    3.2590 H         1 LIG      0.041700
     30 H13         1.1560    1.4580    1.6510 H         1 LIG      0.041700
@<TRIPOS>BOND
     1    1    2 ar  
     2    1    5 ar  
     3    2    3 ar  
     4    3    4 ar  
     5    4    5 ar  
     6    4    9 1   
     7    5    6 1   
     8    6    7 1   
     9    6   13 1   
    10    7    8 1   
    11    7   11 2   
    12    8    9 1   
    13    8   12 1   
    14    9   10 2   
    15   13   14 1   
    16   14   15 1   
    17   14   16 1   
    18    1   17 1   
    19    2   18 1   
    20   12   19 1   
    21   12   20 1   
    22   12   21 1   
    23   13   22 1   
    24   13   23 1   
    25   14   24 1   
    26   15   25 1   
    27   15   26 1   
    28   15   27 1   
    29   16   28 1   
    30   16   29 1   
    31   16   30 1   
@<TRIPOS>SUBSTRUCTURE
     1 LIG         1 TEMP              0 ****  ****    0 ROOT
