@<TRIPOS>MOLECULE
A3S
   45    47     1     0     0
SMALL
bcc


@<TRIPOS>ATOM
      1 O           1.9000   -3.6570   -1.2490 O.h       1 LIG     -0.574800
      2 C           1.9870   -2.7390   -0.1580 C.3       1 LIG      0.112400
      3 C1          1.2610   -1.4420   -0.5220 C.3       1 LIG      0.081100
      4 O1         -0.1590   -1.6810   -0.6570 O.2       1 LIG     -0.411600
      5 C2         -0.7810   -0.3870   -0.5040 C.3       1 LIG      0.228800
      6 N          -2.1910   -0.5360   -0.1330 N.a       1 LIG     -0.311000
      7 C3         -3.1730    0.4110   -0.2770 C.a       1 LIG      0.457800
      8 N1         -3.2190    1.6500   -0.7550 N.b       1 LIG     -0.796000
      9 C4         -4.3500    2.3230   -0.7650 C.a       1 LIG      0.705900
     10 N2         -5.4820    1.8140   -0.3150 N.b       1 LIG     -0.785000
     11 C5         -5.5350    0.5810    0.1770 C.a       1 LIG      0.777200
     12 N3         -6.7260    0.0560    0.6470 N.h       1 LIG     -0.942500
     13 C6         -4.3530   -0.1780    0.2090 C.a       1 LIG     -0.231200
     14 N4         -4.0340   -1.4270    0.6240 N.c       1 LIG     -0.521100
     15 C7         -2.7650   -1.6400    0.4250 C.d       1 LIG      0.417700
     16 C8          0.0050    0.2970    0.6360 C.3       1 LIG      0.099100
     17 O2          0.1600    1.6940    0.3730 O.h       1 LIG     -0.621800
     18 C9          1.3780   -0.4110    0.6220 C.3       1 LIG      0.059700
     19 N5          2.4490    0.5480    0.3410 N.        1 LIG     -0.486900
     20 N6          5.9490    1.0120    1.3340 N.4       1 LIG     -0.828600
     21 CA          4.8130    1.2680    0.4380 C.3       1 LIG     -0.001500
     22 C10         5.2660    1.1160   -1.0150 C.3       1 LIG      0.116400
     23 O3          6.2270    2.1270   -1.3240 O.h       1 LIG     -0.613800
     24 C11         3.7120    0.2810    0.7270 C.        1 LIG      0.647100
     25 O4          3.9630   -0.7540    1.3080 O.3       1 LIG     -0.588100
     26 H           2.3600   -4.4790   -1.0180 H         1 LIG      0.412000
     27 H4          3.0150   -2.5260    0.0480 H         1 LIG      0.065200
     28 H5          1.5310   -3.1710    0.7080 H         1 LIG      0.065200
     29 H6          1.7040   -1.0880   -1.4300 H         1 LIG      0.107700
     30 H7         -0.7580    0.1810   -1.4100 H         1 LIG      0.101700
     31 H8         -4.3520    3.2850   -1.1390 H         1 LIG      0.056100
     32 H9         -7.5480    0.5980    0.6190 H         1 LIG      0.458800
     33 H10        -6.7520   -0.8590    1.0090 H         1 LIG      0.458800
     34 H11        -2.2680   -2.5140    0.6550 H         1 LIG      0.082800
     35 H12        -0.4910    0.2200    1.5810 H         1 LIG      0.099700
     36 H13         0.6070    1.8150   -0.4790 H         1 LIG      0.459000
     37 H14         1.6150   -0.8640    1.5620 H         1 LIG      0.119700
     38 H15         2.2460    1.3880   -0.1300 H         1 LIG      0.327500
     39 H1          6.6940    1.6810    1.1380 H         1 LIG      0.476467
     40 H2          6.2940    0.0640    1.1830 H         1 LIG      0.476467
     41 H3          5.6470    1.1140    2.3030 H         1 LIG      0.476467
     42 HA          4.4510    2.2620    0.5970 H         1 LIG      0.124700
     43 H17         4.4210    1.2170   -1.6640 H         1 LIG      0.096700
     44 H18         5.7080    0.1510   -1.1510 H         1 LIG      0.096700
     45 H16         5.8270    3.0020   -1.2010 H         1 LIG      0.449000
@<TRIPOS>BOND
     1    1    2 1   
     2    2    3 1   
     3    3    4 1   
     4    3   18 1   
     5    4    5 1   
     6    5    6 1   
     7    5   16 1   
     8    6    7 1   
     9    6   15 1   
    10    7    8 ar  
    11    7   13 ar  
    12    8    9 ar  
    13    9   10 ar  
    14   10   11 ar  
    15   11   12 1   
    16   11   13 ar  
    17   13   14 1   
    18   14   15 2   
    19   16   17 1   
    20   16   18 1   
    21   18   19 1   
    22   19   24 1   
    23   20   21 1   
    24   21   22 1   
    25   21   24 1   
    26   22   23 1   
    27   24   25 2   
    28    1   26 1   
    29    2   27 1   
    30    2   28 1   
    31    3   29 1   
    32    5   30 1   
    33    9   31 1   
    34   12   32 1   
    35   12   33 1   
    36   15   34 1   
    37   16   35 1   
    38   17   36 1   
    39   18   37 1   
    40   19   38 1   
    41   20   39 1   
    42   20   40 1   
    43   20   41 1   
    44   21   42 1   
    45   22   43 1   
    46   22   44 1   
    47   23   45 1   
@<TRIPOS>SUBSTRUCTURE
     1 LIG         1 TEMP              0 ****  ****    0 ROOT
