@<TRIPOS>MOLECULE
H4B
   32    33     1     0     0
SMALL
bcc


@<TRIPOS>ATOM
      1 N          -1.2070    0.5640   -2.2160 nc        1 LIG     -0.696300
      2 C          -0.2130    0.6360   -3.0750 cd        1 LIG      0.662800
      3 N1         -0.4060    1.2850   -4.2690 nh        1 LIG     -0.882800
      4 N2          1.0000    0.0820   -2.8090 n         1 LIG     -0.490400
      5 C1          1.2110   -0.5620   -1.6410 c         1 LIG      0.710700
      6 O           2.2970   -1.0640   -1.3920 o         1 LIG     -0.646500
      7 C2          0.1580   -0.6420   -0.7230 cd        1 LIG     -0.178200
      8 C3         -1.0590   -0.0590   -1.0410 cc        1 LIG      0.376600
      9 N3          0.3260   -1.3060    0.5120 nh        1 LIG     -0.651000
     10 N4         -2.1120   -0.1250   -0.1420 nh        1 LIG     -0.725000
     11 C4         -0.6620   -1.0660    1.5750 c3        1 LIG      0.135500
     12 C5         -2.0610   -1.1130    0.9440 c3        1 LIG      0.202800
     13 C6         -0.4230    0.3080    2.2020 c3        1 LIG      0.067100
     14 O1         -1.3960    0.5420    3.2230 oh        1 LIG     -0.588800
     15 C7          0.9780    0.3530    2.8140 c3        1 LIG      0.108100
     16 C8          1.2170    1.7280    3.4410 c3        1 LIG     -0.128100
     17 O2          1.9510    0.1190    1.7930 oh        1 LIG     -0.589800
     18 H          -1.2800    1.6900   -4.4730 hn        1 LIG      0.412300
     19 H1          0.3290    1.3450   -4.9210 hn        1 LIG      0.412300
     20 H2          1.7260    0.1510   -3.4700 hn        1 LIG      0.336500
     21 H3          1.0860   -1.9150    0.6580 hn        1 LIG      0.418800
     22 H4         -2.8830    0.4810   -0.2300 hn        1 LIG      0.429800
     23 H5         -0.5740   -1.8100    2.3390 h1        1 LIG      0.069700
     24 H6         -2.2480   -2.0910    0.5520 h1        1 LIG      0.061200
     25 H7         -2.8050   -0.8890    1.6800 h1        1 LIG      0.061200
     26 H8         -0.5080    1.0630    1.4480 h1        1 LIG      0.083700
     27 H9         -1.3190   -0.1420    3.9060 ho        1 LIG      0.399000
     28 H10         1.0630   -0.4020    3.5680 h1        1 LIG      0.072700
     29 H11         1.1320    2.4830    2.6880 hc        1 LIG      0.049367
     30 H12         2.1970    1.7590    3.8690 hc        1 LIG      0.049367
     31 H13         0.4890    1.9030    4.2050 hc        1 LIG      0.049367
     32 H14         1.8740    0.8030    1.1100 ho        1 LIG      0.409000
@<TRIPOS>BOND
     1    1    2 2   
     2    1    8 1   
     3    2    3 1   
     4    2    4 1   
     5    4    5 1   
     6    5    6 2   
     7    5    7 1   
     8    7    8 2   
     9    7    9 1   
    10    8   10 1   
    11    9   11 1   
    12   10   12 1   
    13   11   12 1   
    14   11   13 1   
    15   13   14 1   
    16   13   15 1   
    17   15   16 1   
    18   15   17 1   
    19    3   18 1   
    20    3   19 1   
    21    4   20 1   
    22    9   21 1   
    23   10   22 1   
    24   11   23 1   
    25   12   24 1   
    26   12   25 1   
    27   13   26 1   
    28   14   27 1   
    29   15   28 1   
    30   16   29 1   
    31   16   30 1   
    32   16   31 1   
    33   17   32 1   
@<TRIPOS>SUBSTRUCTURE
     1 LIG         1 TEMP              0 ****  ****    0 ROOT
