@<TRIPOS>MOLECULE
SIA
   39    39     1     0     0
SMALL
bcc


@<TRIPOS>ATOM
      1 C          -2.5020   -0.8320    0.1740 C.        1 LIG      0.894600
      2 C1         -2.1710    0.6280    0.3420 C.3       1 LIG      0.215600
      3 C2         -1.7890    0.8980    1.8000 C.3       1 LIG     -0.106400
      4 C3         -0.5860    0.0230    2.1710 C.3       1 LIG      0.111100
      5 C4          0.5290    0.2640    1.1480 C.3       1 LIG      0.036700
      6 C5         -0.0260    0.0430   -0.2590 C.3       1 LIG      0.101100
      7 C6          1.0880    0.2510   -1.2860 C.3       1 LIG      0.127100
      8 C7          0.5350    0.0210   -2.6940 C.3       1 LIG      0.078100
      9 C8          1.6500    0.2290   -3.7210 C.3       1 LIG      0.137400
     10 C9          2.6320   -0.3290    2.2260 C.        1 LIG      0.660100
     11 C10         3.7630   -1.2920    2.4780 C.3       1 LIG     -0.175100
     12 N           1.6290   -0.6710    1.3940 N.        1 LIG     -0.533900
     13 O          -2.1910   -1.4080   -0.8410 O.3       1 LIG     -0.816800
     14 O1         -3.1410   -1.4930    1.1520 O.3       1 LIG     -0.816800
     15 O2         -3.3120    1.4160   -0.0030 O.h       1 LIG     -0.608800
     16 O3         -0.1230    0.3700    3.4780 O.h       1 LIG     -0.612800
     17 O4         -1.0820    0.9680   -0.5130 O.2       1 LIG     -0.462600
     18 O5          1.5880    1.5860   -1.1830 O.h       1 LIG     -0.607800
     19 O6          0.0350   -1.3130   -2.7970 O.h       1 LIG     -0.627800
     20 O7          1.1330    0.0140   -5.0350 O.h       1 LIG     -0.615800
     21 O8          2.6240    0.7530    2.7720 O.3       1 LIG     -0.629100
     22 H          -2.6150    0.6610    2.4370 H         1 LIG      0.055700
     23 H1         -1.5360    1.9310    1.9220 H         1 LIG      0.055700
     24 H2         -0.8700   -1.0090    2.1660 H         1 LIG      0.114700
     25 H3          0.8910    1.2670    1.2380 H         1 LIG      0.088700
     26 H4         -0.4040   -0.9550   -0.3350 H         1 LIG      0.102700
     27 H5          1.8810   -0.4430   -1.0970 H         1 LIG      0.074700
     28 H6         -0.2580    0.7150   -2.8830 H         1 LIG      0.067700
     29 H7          2.4430   -0.4640   -3.5320 H         1 LIG      0.047200
     30 H8          2.0240    1.2280   -3.6440 H         1 LIG      0.047200
     31 H9          3.6010   -2.1880    1.9150 H         1 LIG      0.058367
     32 H10         3.8040   -1.5280    3.5210 H         1 LIG      0.058367
     33 H11         4.6870   -0.8440    2.1770 H         1 LIG      0.058367
     34 H12         1.6360   -1.5500    0.9510 H         1 LIG      0.301500
     35 H13        -4.0530    1.1850    0.5790 H         1 LIG      0.435000
     36 H14         0.1370    1.3040    3.4920 H         1 LIG      0.406000
     37 H15         0.8690    2.2150   -1.3550 H         1 LIG      0.421000
     38 H16         0.7530   -1.9420   -2.6250 H         1 LIG      0.443000
     39 H17         0.7940   -0.8920   -5.1050 H         1 LIG      0.414000
@<TRIPOS>BOND
     1    1    2 1   
     2    1   13 1   
     3    1   14 1   
     4    2    3 1   
     5    2   15 1   
     6    2   17 1   
     7    3    4 1   
     8    4    5 1   
     9    4   16 1   
    10    5    6 1   
    11    5   12 1   
    12    6    7 1   
    13    6   17 1   
    14    7    8 1   
    15    7   18 1   
    16    8    9 1   
    17    8   19 1   
    18    9   20 1   
    19   10   11 1   
    20   10   12 1   
    21   10   21 2   
    22    3   22 1   
    23    3   23 1   
    24    4   24 1   
    25    5   25 1   
    26    6   26 1   
    27    7   27 1   
    28    8   28 1   
    29    9   29 1   
    30    9   30 1   
    31   11   31 1   
    32   11   32 1   
    33   11   33 1   
    34   12   34 1   
    35   15   35 1   
    36   16   36 1   
    37   18   37 1   
    38   19   38 1   
    39   20   39 1   
@<TRIPOS>SUBSTRUCTURE
     1 LIG         1 TEMP              0 ****  ****    0 ROOT
