@<TRIPOS>MOLECULE
44V
   24    25     1     0     0
SMALL
bcc


@<TRIPOS>ATOM
      1 C          -2.8610    0.0690   -1.4070 c3        1 LIG     -0.130100
      2 C1         -2.4210   -1.1100    0.7620 c3        1 LIG      0.208800
      3 C2         -2.6680    0.2540    0.1000 c3        1 LIG      0.152500
      4 N          -1.4910    1.1020    0.3500 nh        1 LIG     -0.646000
      5 C3         -0.2070    0.5360    0.1900 cc        1 LIG     -0.175200
      6 C4         -0.0560   -0.8430    0.1330 cd        1 LIG      0.381600
      7 N1         -1.1690   -1.6640    0.2280 nh        1 LIG     -0.733000
      8 N2          1.1650   -1.3690   -0.0150 nd        1 LIG     -0.699300
      9 C5          2.2280   -0.5980   -0.1100 cc        1 LIG      0.663800
     10 N3          2.1320    0.7590   -0.0610 n         1 LIG     -0.490400
     11 C6          0.9260    1.3490    0.0890 c         1 LIG      0.713700
     12 O           0.8280    2.5660    0.1340 o         1 LIG     -0.648500
     13 N4          3.4630   -1.1770   -0.2610 nh        1 LIG     -0.882800
     14 H          -3.7170   -0.5480   -1.5840 hc        1 LIG      0.042367
     15 H1         -1.9930   -0.3980   -1.8230 hc        1 LIG      0.042367
     16 H2         -3.0080    1.0240   -1.8680 hc        1 LIG      0.042367
     17 H3         -3.2320   -1.7720    0.5410 h1        1 LIG      0.051200
     18 H4         -2.3500   -0.9960    1.8240 h1        1 LIG      0.051200
     19 H5         -3.5470    0.7100    0.5050 h1        1 LIG      0.069700
     20 H6         -1.5970    2.0420    0.6230 hn        1 LIG      0.393800
     21 H7         -1.1210   -2.6050   -0.0580 hn        1 LIG      0.429800
     22 H8          2.9430    1.3120   -0.1350 hn        1 LIG      0.336500
     23 H9          3.5460   -2.1570   -0.2980 hn        1 LIG      0.411800
     24 H10         4.2660   -0.6120   -0.3330 hn        1 LIG      0.411800
@<TRIPOS>BOND
     1    2    3 1   
     2    3    1 1   
     3    3    4 1   
     4    5    4 1   
     5    5   11 1   
     6    6    5 2   
     7    7    2 1   
     8    7    6 1   
     9    8    6 1   
    10    8    9 2   
    11    9   10 1   
    12   10   11 1   
    13   11   12 2   
    14   13    9 1   
    15    1   14 1   
    16    1   15 1   
    17    1   16 1   
    18    2   17 1   
    19    2   18 1   
    20    3   19 1   
    21    4   20 1   
    22    7   21 1   
    23   10   22 1   
    24   13   23 1   
    25   13   24 1   
@<TRIPOS>SUBSTRUCTURE
     1 LIG         1 TEMP              0 ****  ****    0 ROOT
