@<TRIPOS>MOLECULE
CPD
   85    86     1     0     0
SMALL
bcc


@<TRIPOS>ATOM
      1 C           3.3680   -0.3140    5.2810 c3        1 LIG      0.052100
      2 C1          2.1290   -0.8080    4.5790 c         1 LIG      0.658100
      3 CA          0.9870   -1.6630    2.6040 c3        1 LIG      0.052700
      4 C2          1.3800   -2.6700    1.5220 c3        1 LIG      0.113400
      5 C3          0.2600   -0.4800    1.9610 c3        1 LIG      0.235400
      6 C4         -0.1270    0.5110    3.0270 ca        1 LIG     -0.036300
      7 C5         -1.3510    0.4010    3.6600 ca        1 LIG     -0.108500
      8 C6          0.7420    1.5270    3.3750 ca        1 LIG     -0.108500
      9 C7         -1.7070    1.3110    4.6380 ca        1 LIG     -0.092000
     10 C8          0.3840    2.4390    4.3500 ca        1 LIG     -0.092000
     11 C9         -0.8390    2.3300    4.9830 ca        1 LIG     -0.193200
     12 C10         0.7330   -1.3560   -0.9370 c3        1 LIG     -0.370300
     13 C11         0.9640   -0.8720   -2.3460 ca        1 LIG     -0.106300
     14 C12         1.8110    0.1950   -2.5780 ca        1 LIG     -0.097500
     15 C13         0.3330   -1.5010   -3.4040 ca        1 LIG     -0.097500
     16 C14         2.0250    0.6400   -3.8680 ca        1 LIG     -0.157500
     17 C15         0.5380   -1.0570   -4.6950 ca        1 LIG     -0.157500
     18 C16         1.3890    0.0140   -4.9320 ca        1 LIG      0.070600
     19 C17         2.8030    0.9680   -6.5900 c         1 LIG      0.636100
     20 C18         2.9970    1.5680   -7.9590 c3        1 LIG      0.559900
     21 C19        -2.4920   -2.3440   -0.9730 c         1 LIG      0.756100
     22 C20        -3.8960   -4.2030   -1.6860 c3        1 LIG      0.068000
     23 C21        -5.0770   -4.4420   -2.6290 c3        1 LIG     -0.131100
     24 C22        -2.8050   -0.1340   -1.9500 c3        1 LIG      0.092000
     25 C23        -3.9000    0.5620   -1.1390 c3        1 LIG     -0.132400
     26 C24        -4.6600    1.5370   -2.0410 c3        1 LIG      0.105800
     27 C25        -6.3990    3.1220   -2.1820 c3        1 LIG      0.086600
     28 C26        -6.6850    1.1700   -0.8910 c3        1 LIG      0.086600
     29 N           2.1910   -1.1830    3.2860 n         1 LIG     -0.557900
     30 N1         -1.2200    3.3050    6.0290 no        1 LIG      0.313200
     31 N2          1.6040    0.4630   -6.2400 n         1 LIG     -0.453100
     32 N3         -2.0770   -1.0670   -1.0860 n         1 LIG     -0.614800
     33 N4         -3.5150   -2.7890   -1.7280 n         1 LIG     -0.511900
     34 N5         -5.7110    2.2060   -1.2630 n4        1 LIG     -0.679400
     35 O           1.0760   -0.8670    5.1780 o         1 LIG     -0.566100
     36 O1          0.2060   -3.1380    0.8570 oh        1 LIG     -0.603800
     37 O2         -0.4550    4.2030    6.3330 o         1 LIG     -0.221000
     38 O3         -2.2990    3.2100    6.5870 o         1 LIG     -0.221000
     39 O4         -0.9140   -0.9490    1.2950 os        1 LIG     -0.591200
     40 O5         -0.6310    0.9110   -0.3850 o         1 LIG     -0.877300
     41 O6         -1.9430   -3.0940   -0.1890 o         1 LIG     -0.647100
     42 O7          3.7260    0.9400   -5.8040 o         1 LIG     -0.515100
     43 Cl          4.6250   -1.6070    5.2620 cl        1 LIG     -0.119400
     44 Cl1         2.9650    0.1070    6.9870 cl        1 LIG     -0.119400
     45 F           4.3140    2.0220   -8.0860 f         1 LIG     -0.215967
     46 F1          2.7420    0.5980   -8.9340 f         1 LIG     -0.215967
     47 F2          2.1160    2.6420   -8.1270 f         1 LIG     -0.215967
     48 P          -0.7570   -0.5570   -0.2570 p5        1 LIG      1.582300
     49 H           3.7410    0.5540    4.7780 h2        1 LIG      0.140700
     50 HA          0.3400   -2.1370    3.3130 h1        1 LIG      0.116700
     51 H1          1.8880   -3.4970    1.9720 h1        1 LIG      0.062200
     52 H2          2.0260   -2.1970    0.8130 h1        1 LIG      0.062200
     53 H3          0.9060   -0.0050    1.2520 h1        1 LIG      0.082700
     54 H4         -1.9990   -0.3600    3.4030 ha        1 LIG      0.171000
     55 H5          1.6590    1.6050    2.9070 ha        1 LIG      0.171000
     56 H6         -2.6210    1.2300    5.1110 ha        1 LIG      0.165000
     57 H7          1.0310    3.2020    4.6050 ha        1 LIG      0.165000
     58 H8          1.5790   -1.1070   -0.3310 hc        1 LIG      0.146200
     59 H9          0.5980   -2.4170   -0.9420 hc        1 LIG      0.146200
     60 H10         2.2840    0.6600   -1.7870 ha        1 LIG      0.147500
     61 H11        -0.2920   -2.3030   -3.2280 ha        1 LIG      0.147500
     62 H12         2.6570    1.4370   -4.0410 ha        1 LIG      0.158500
     63 H13         0.0590   -1.5210   -5.4830 ha        1 LIG      0.158500
     64 H14        -3.0670   -4.8050   -1.9940 h1        1 LIG      0.079700
     65 H15        -4.1780   -4.4670   -0.6880 h1        1 LIG      0.079700
     66 H16        -4.7950   -4.1780   -3.6270 hc        1 LIG      0.051367
     67 H17        -5.9060   -3.8400   -2.3220 hc        1 LIG      0.051367
     68 H18        -5.3550   -5.4750   -2.5980 hc        1 LIG      0.051367
     69 H19        -2.1270    0.5980   -2.3360 h1        1 LIG      0.082700
     70 H20        -3.2490   -0.6710   -2.7620 h1        1 LIG      0.082700
     71 H21        -3.4560    1.0990   -0.3270 hc        1 LIG      0.071700
     72 H22        -4.5780   -0.1700   -0.7530 hc        1 LIG      0.071700
     73 H23        -5.1040    1.0000   -2.8530 hx        1 LIG      0.104700
     74 H24        -3.9810    2.2690   -2.4270 hx        1 LIG      0.104700
     75 H25        -5.7260    3.8980   -2.4820 hx        1 LIG      0.104367
     76 H26        -7.2440    3.5540   -1.6880 hx        1 LIG      0.104367
     77 H27        -6.7280    2.5810   -3.0450 hx        1 LIG      0.104367
     78 H28        -6.2270    0.4750   -0.2180 hx        1 LIG      0.104367
     79 H29        -7.0100    0.6540   -1.7700 hx        1 LIG      0.104367
     80 H30        -7.5270    1.6270   -0.4140 hx        1 LIG      0.104367
     81 H31         3.0460   -1.1340    2.8000 hn        1 LIG      0.324500
     82 H32         0.8790    0.4100   -6.9040 hn        1 LIG      0.340500
     83 H33        -4.0070   -2.1640   -2.3080 hn        1 LIG      0.298500
     84 H34        -5.3360    2.6910   -0.4480 hn        1 LIG      0.474800
     85 H35        -0.3800   -3.5670    1.5000 ho        1 LIG      0.417000
@<TRIPOS>BOND
     1    1    2 1   
     2    1   43 1   
     3    1   44 1   
     4    2   29 1   
     5    2   35 2   
     6    3    4 1   
     7    3    5 1   
     8    3   29 1   
     9    4   36 1   
    10    5    6 1   
    11    5   39 1   
    12    6    7 ar  
    13    6    8 ar  
    14    7    9 ar  
    15    8   10 ar  
    16    9   11 ar  
    17   10   11 ar  
    18   11   30 1   
    19   12   13 1   
    20   12   48 1   
    21   13   14 ar  
    22   13   15 ar  
    23   14   16 ar  
    24   15   17 ar  
    25   16   18 ar  
    26   17   18 ar  
    27   18   31 1   
    28   19   20 1   
    29   19   31 1   
    30   19   42 2   
    31   20   45 1   
    32   20   46 1   
    33   20   47 1   
    34   21   32 1   
    35   21   33 1   
    36   21   41 2   
    37   22   23 1   
    38   22   33 1   
    39   24   25 1   
    40   24   32 1   
    41   25   26 1   
    42   26   34 1   
    43   27   34 1   
    44   28   34 1   
    45   30   37 1   
    46   30   38 1   
    47   32   48 1   
    48   39   48 1   
    49   40   48 2   
    50    1   49 1   
    51    3   50 1   
    52    4   51 1   
    53    4   52 1   
    54    5   53 1   
    55    7   54 1   
    56    8   55 1   
    57    9   56 1   
    58   10   57 1   
    59   12   58 1   
    60   12   59 1   
    61   14   60 1   
    62   15   61 1   
    63   16   62 1   
    64   17   63 1   
    65   22   64 1   
    66   22   65 1   
    67   23   66 1   
    68   23   67 1   
    69   23   68 1   
    70   24   69 1   
    71   24   70 1   
    72   25   71 1   
    73   25   72 1   
    74   26   73 1   
    75   26   74 1   
    76   27   75 1   
    77   27   76 1   
    78   27   77 1   
    79   28   78 1   
    80   28   79 1   
    81   28   80 1   
    82   29   81 1   
    83   31   82 1   
    84   33   83 1   
    85   34   84 1   
    86   36   85 1   
@<TRIPOS>SUBSTRUCTURE
     1 LIG         1 TEMP              0 ****  ****    0 ROOT
