@<TRIPOS>MOLECULE
AUB
   61    65     1     0     0
SMALL
bcc


@<TRIPOS>ATOM
      1 C           5.7800   -1.0660   -0.5980 ca        1 LIG     -0.092500
      2 C1          7.1420    0.3070    0.8550 ca        1 LIG     -0.092500
      3 C2          4.7090   -0.2280   -0.3780 ca        1 LIG     -0.185500
      4 C3          6.0650    1.1360    1.0740 ca        1 LIG     -0.185500
      5 C4          7.0070   -0.8060    0.0200 ca        1 LIG     -0.135600
      6 C5          4.8470    0.8740    0.4580 ca        1 LIG      0.063100
      7 C6          8.1540   -1.7040   -0.2080 c         1 LIG      0.908200
      8 C7         -2.6300    0.6320   -0.4600 c         1 LIG      0.737100
      9 C8          0.5160    2.4510   -1.0100 c3        1 LIG     -0.089400
     10 C9          0.5000    0.0940   -0.1800 c3        1 LIG     -0.089400
     11 C10         1.7860    2.7270   -0.2020 c3        1 LIG     -0.091900
     12 C11         1.7700    0.3700    0.6280 c3        1 LIG     -0.091900
     13 C12        -6.9760   -2.2240   -0.1920 c3        1 LIG     -0.071400
     14 C13        -7.7620    0.1060    0.2480 c3        1 LIG     -0.071400
     15 C14        -6.3120   -1.0590    1.9160 c3        1 LIG     -0.071400
     16 C15        -6.0610   -0.3240   -1.5310 c3        1 LIG     -0.084067
     17 C16        -4.6110   -1.4890    0.1370 c3        1 LIG     -0.084067
     18 C17        -5.3970    0.8420    0.5770 c3        1 LIG     -0.084067
     19 C18        -7.3060   -0.8750   -0.8340 c3        1 LIG     -0.058700
     20 C19        -5.8560   -2.0400    0.8340 c3        1 LIG     -0.058700
     21 C20        -6.6420    0.2900    1.2740 c3        1 LIG     -0.058700
     22 C21        -0.3170    1.3820   -0.3010 c3        1 LIG      0.081700
     23 C22         2.6040    1.4390   -0.0820 c3        1 LIG      0.143100
     24 C23        -4.9410   -0.1400   -0.5040 c3        1 LIG      0.121400
     25 N          -1.5330    1.1180   -1.0740 n         1 LIG     -0.535900
     26 N1         -3.7490    0.3890   -1.1720 n         1 LIG     -0.539900
     27 O           8.0340   -2.6710   -0.9340 o         1 LIG     -0.831300
     28 O1         -2.6110    0.4120    0.7350 o         1 LIG     -0.636100
     29 O2          9.3360   -1.4520    0.3880 o         1 LIG     -0.831300
     30 O3          3.7900    1.6970    0.6730 os        1 LIG     -0.348900
     31 H           5.6770   -1.8850   -1.2180 ha        1 LIG      0.153500
     32 H1          8.0480    0.5070    1.3070 ha        1 LIG      0.153500
     33 H2          3.8030   -0.4180   -0.8340 ha        1 LIG      0.116500
     34 H3          6.1620    1.9530    1.6970 ha        1 LIG      0.116500
     35 H4          0.7830    2.1060   -1.9870 hc        1 LIG      0.042200
     36 H5         -0.0560    3.3510   -1.0940 hc        1 LIG      0.042200
     37 H6         -0.0830   -0.6530    0.3160 hc        1 LIG      0.042200
     38 H7          0.7670   -0.2530   -1.1570 hc        1 LIG      0.042200
     39 H8          1.5190    3.0720    0.7750 hc        1 LIG      0.055950
     40 H9          2.3690    3.4750   -0.6980 hc        1 LIG      0.055950
     41 H10         2.3420   -0.5300    0.7130 hc        1 LIG      0.055950
     42 H11         1.5030    0.7160    1.6050 hc        1 LIG      0.055950
     43 H12        -6.6580   -2.9110   -0.9480 hc        1 LIG      0.040200
     44 H13        -7.8470   -2.6100    0.2960 hc        1 LIG      0.040200
     45 H14        -7.9930    1.0500   -0.2010 hc        1 LIG      0.040200
     46 H15        -8.6330   -0.2800    0.7360 hc        1 LIG      0.040200
     47 H16        -7.1830   -1.4450    2.4030 hc        1 LIG      0.040200
     48 H17        -5.5290   -0.9310    2.6340 hc        1 LIG      0.040200
     49 H18        -5.7420   -1.0110   -2.2870 hc        1 LIG      0.054867
     50 H19        -6.2920    0.6190   -1.9800 hc        1 LIG      0.054867
     51 H20        -3.8280   -1.3610    0.8550 hc        1 LIG      0.054867
     52 H21        -4.2930   -2.1750   -0.6200 hc        1 LIG      0.054867
     53 H22        -4.6140    0.9710    1.2950 hc        1 LIG      0.054867
     54 H23        -5.6280    1.7850    0.1280 hc        1 LIG      0.054867
     55 H24        -8.0890   -1.0030   -1.5520 hc        1 LIG      0.047367
     56 H25        -5.6250   -2.9830    1.2830 hc        1 LIG      0.047367
     57 H26        -6.9600    0.9770    2.0300 hc        1 LIG      0.047367
     58 H27        -0.5830    1.7280    0.6760 h1        1 LIG      0.093700
     59 H28         2.8710    1.0930   -1.0590 h1        1 LIG      0.057700
     60 H29        -1.5490    1.2960   -2.0420 hn        1 LIG      0.282500
     61 H30        -3.7650    0.5670   -2.1400 hn        1 LIG      0.284500
@<TRIPOS>BOND
     1    1    5 ar  
     2    2    5 ar  
     3    3    1 ar  
     4    4    2 ar  
     5    5    7 1   
     6    6    3 ar  
     7    6    4 ar  
     8    7   27 1   
     9    7   29 1   
    10    8   25 1   
    11    9   11 1   
    12   10   12 1   
    13   11   23 1   
    14   12   23 1   
    15   13   19 1   
    16   13   20 1   
    17   14   21 1   
    18   15   21 1   
    19   16   24 1   
    20   17   24 1   
    21   19   14 1   
    22   19   16 1   
    23   20   15 1   
    24   20   17 1   
    25   21   18 1   
    26   22    9 1   
    27   22   10 1   
    28   23   30 1   
    29   24   18 1   
    30   24   26 1   
    31   25   22 1   
    32   26    8 1   
    33   28    8 2   
    34   30    6 1   
    35    1   31 1   
    36    2   32 1   
    37    3   33 1   
    38    4   34 1   
    39    9   35 1   
    40    9   36 1   
    41   10   37 1   
    42   10   38 1   
    43   11   39 1   
    44   11   40 1   
    45   12   41 1   
    46   12   42 1   
    47   13   43 1   
    48   13   44 1   
    49   14   45 1   
    50   14   46 1   
    51   15   47 1   
    52   15   48 1   
    53   16   49 1   
    54   16   50 1   
    55   17   51 1   
    56   17   52 1   
    57   18   53 1   
    58   18   54 1   
    59   19   55 1   
    60   20   56 1   
    61   21   57 1   
    62   22   58 1   
    63   23   59 1   
    64   25   60 1   
    65   26   61 1   
@<TRIPOS>SUBSTRUCTURE
     1 LIG         1 TEMP              0 ****  ****    0 ROOT
