@<TRIPOS>MOLECULE
DEX
   57    60     1     0     0
SMALL
bcc


@<TRIPOS>ATOM
      1 C          -1.5670    0.4360   -3.3110 c2        1 LIG     -0.103200
      2 C1         -1.4480    0.8180   -4.5730 ce        1 LIG     -0.232200
      3 C2         -0.2480    0.4460   -5.3410 c         1 LIG      0.561500
      4 C3          0.8200   -0.2980   -4.6570 ce        1 LIG     -0.235200
      5 C4          0.6820   -0.6640   -3.3900 c2        1 LIG     -0.049400
      6 C5          1.8150   -1.4120   -2.7130 c3        1 LIG     -0.052200
      7 C6          2.1440   -0.6920   -1.4010 c3        1 LIG     -0.073400
      8 C7          0.8800   -0.5740   -0.5470 c3        1 LIG     -0.071700
      9 C8         -0.1670    0.2940   -1.2620 c3        1 LIG      0.173300
     10 C9         -0.5500   -0.3750   -2.5850 c3        1 LIG     -0.006600
     11 C10        -1.4220    0.5010   -0.4210 c3        1 LIG      0.125100
     12 C11        -1.0870    1.0520    0.9730 c3        1 LIG     -0.101400
     13 C12        -0.0800    0.1090    1.6340 c3        1 LIG     -0.072000
     14 C13         1.2080    0.1020    0.7700 c3        1 LIG     -0.073700
     15 C14         2.1880   -0.6460    1.6790 c3        1 LIG     -0.073400
     16 C15         1.8810   -0.0550    3.0820 c3        1 LIG     -0.094700
     17 C16         0.4290    0.4800    3.0240 c3        1 LIG      0.065800
     18 C17        -0.6310   -1.3170    1.6360 c3        1 LIG     -0.101100
     19 C18        -1.1930   -1.7130   -2.2160 c3        1 LIG     -0.085100
     20 C19        -0.3880   -0.2120    4.0830 c         1 LIG      0.556100
     21 C20        -1.6620    0.4170    4.5840 c3        1 LIG      0.042400
     22 C21         2.8510    1.0860    3.3940 c3        1 LIG     -0.090100
     23 F           0.3990    1.5450   -1.5270 f         1 LIG     -0.231300
     24 O          -0.1430    0.7480   -6.5150 o         1 LIG     -0.528100
     25 O1         -2.0980   -0.7490   -0.2760 oh        1 LIG     -0.589800
     26 O2          0.3810    1.8960    3.2080 oh        1 LIG     -0.591800
     27 O3         -0.0230   -1.2730    4.5300 o         1 LIG     -0.532100
     28 O4         -2.2520   -0.4240    5.5770 oh        1 LIG     -0.587800
     29 H          -2.4170    0.7180   -2.7980 ha        1 LIG      0.144000
     30 H1         -2.1940    1.3750   -5.0170 ha        1 LIG      0.154000
     31 H2          1.6840   -0.5370   -5.1670 ha        1 LIG      0.151000
     32 H3          2.6760   -1.4190   -3.3490 hc        1 LIG      0.058200
     33 H4          1.5270   -2.4240   -2.5180 hc        1 LIG      0.058200
     34 H5          2.5200    0.2860   -1.6170 hc        1 LIG      0.057700
     35 H6          2.8830   -1.2510   -0.8660 hc        1 LIG      0.057700
     36 H7          0.4990   -1.5600   -0.3830 hc        1 LIG      0.064700
     37 H8         -2.0430    1.2140   -0.9210 h1        1 LIG      0.088700
     38 H9         -1.9770    1.1030    1.5650 hc        1 LIG      0.068200
     39 H10        -0.6720    2.0350    0.8910 hc        1 LIG      0.068200
     40 H11         1.6210    1.0460    0.4840 hc        1 LIG      0.058700
     41 H12         3.2010   -0.4540    1.3940 hc        1 LIG      0.053200
     42 H13         2.0770   -1.7090    1.6350 hc        1 LIG      0.053200
     43 H14         1.9910   -0.7940    3.8480 hc        1 LIG      0.086700
     44 H15        -0.9840   -1.5640    0.6570 hc        1 LIG      0.047700
     45 H16        -1.4390   -1.3860    2.3340 hc        1 LIG      0.047700
     46 H17         0.1440   -1.9980    1.9180 hc        1 LIG      0.047700
     47 H18        -1.4820   -2.2280   -3.1080 hc        1 LIG      0.051033
     48 H19        -2.0570   -1.5380   -1.6090 hc        1 LIG      0.051033
     49 H20        -0.4900   -2.3090   -1.6730 hc        1 LIG      0.051033
     50 H21        -2.3440    0.5380    3.7690 h1        1 LIG      0.082700
     51 H22        -1.4430    1.3730    5.0120 h1        1 LIG      0.082700
     52 H23         2.7640    1.8430    2.6430 hc        1 LIG      0.043033
     53 H24         3.8520    0.7090    3.4070 hc        1 LIG      0.043033
     54 H25         2.6150    1.5030    4.3510 hc        1 LIG      0.043033
     55 H26        -1.5180   -1.3790    0.1790 ho        1 LIG      0.405000
     56 H27         0.9100    2.3290    2.5210 ho        1 LIG      0.419000
     57 H28        -2.4510   -1.2910    5.1900 ho        1 LIG      0.415000
@<TRIPOS>BOND
     1    1    2 2   
     2    1   10 1   
     3    2    3 1   
     4    3    4 1   
     5    3   24 2   
     6    4    5 2   
     7    5    6 1   
     8    5   10 1   
     9    6    7 1   
    10    7    8 1   
    11    8    9 1   
    12    8   14 1   
    13    9   10 1   
    14    9   11 1   
    15    9   23 1   
    16   10   19 1   
    17   11   12 1   
    18   11   25 1   
    19   12   13 1   
    20   13   14 1   
    21   13   17 1   
    22   13   18 1   
    23   14   15 1   
    24   15   16 1   
    25   16   17 1   
    26   16   22 1   
    27   17   20 1   
    28   17   26 1   
    29   20   21 1   
    30   20   27 2   
    31   21   28 1   
    32    1   29 1   
    33    2   30 1   
    34    4   31 1   
    35    6   32 1   
    36    6   33 1   
    37    7   34 1   
    38    7   35 1   
    39    8   36 1   
    40   11   37 1   
    41   12   38 1   
    42   12   39 1   
    43   14   40 1   
    44   15   41 1   
    45   15   42 1   
    46   16   43 1   
    47   18   44 1   
    48   18   45 1   
    49   18   46 1   
    50   19   47 1   
    51   19   48 1   
    52   19   49 1   
    53   21   50 1   
    54   21   51 1   
    55   22   52 1   
    56   22   53 1   
    57   22   54 1   
    58   25   55 1   
    59   26   56 1   
    60   28   57 1   
@<TRIPOS>SUBSTRUCTURE
     1 LIG         1 TEMP              0 ****  ****    0 ROOT
