@<TRIPOS>MOLECULE
D3T
   41    42     1     0     0
SMALL
bcc


@<TRIPOS>ATOM
      1 P           1.7090    1.3920    5.5860 P.5       1 LIG      1.610800
      2 O           2.9780    1.9460    6.1660 O.3       1 LIG     -0.899500
      3 O1          0.4360    2.3840    5.7040 O.3       1 LIG     -0.899500
      4 O2          1.7980    1.0540    4.0050 O.2       1 LIG     -0.583200
      5 C           0.6700    0.5250    3.3290 C.3       1 LIG      0.221400
      6 C1          1.0270    0.3020    1.8660 C.3       1 LIG      0.108100
      7 O3          2.0970   -0.6570    1.8010 O.2       1 LIG     -0.438600
      8 C2          1.6000   -1.8690    1.2170 C.3       1 LIG      0.325500
      9 N           2.0730   -2.9910    1.9720 N.        1 LIG     -0.306000
     10 C3          2.2550   -2.8380    3.3410 C.c       1 LIG     -0.113400
     11 C4          2.3490   -4.2270    1.3490 C.        1 LIG      0.751500
     12 O4          2.2110   -4.4340    0.1420 O.3       1 LIG     -0.742500
     13 N1          2.8030   -5.2340    2.2080 N.        1 LIG     -0.600500
     14 C5          3.0030   -5.1360    3.5770 C.        1 LIG      0.709700
     15 O5          3.4060   -6.0640    4.2720 O.3       1 LIG     -0.795500
     16 C6          2.6900   -3.8040    4.1590 C.d       1 LIG     -0.459400
     17 C7          2.8790   -3.6190    5.6310 C.3       1 LIG      0.055100
     18 C8          0.0870   -1.7640    1.2010 C.3       1 LIG     -0.103400
     19 C9         -0.1210   -0.2770    1.0540 C.3       1 LIG     -0.107400
     20 O6          1.1850    0.0250    6.2670 O.2       1 LIG     -0.822800
     21 P1          0.7500   -0.3290    7.7820 P.5       1 LIG      1.737800
     22 O7         -0.4000    0.4730    8.3150 O.3       1 LIG     -0.914000
     23 O8          2.1230   -0.1930    8.6250 O.3       1 LIG     -0.914000
     24 O9          0.5080   -1.9230    7.6930 O.2       1 LIG     -0.840800
     25 P2         -0.5730   -2.7820    6.8920 P.5       1 LIG      1.512900
     26 O10        -0.4150   -2.5090    5.4800 O.3       1 LIG     -0.783833
     27 O11        -2.0680   -2.3750    7.2970 O.3       1 LIG     -0.783833
     28 O12        -0.3690   -4.3540    7.1080 O.3       1 LIG     -0.783833
     29 H          -0.1450    1.2140    3.3980 H         1 LIG      0.022200
     30 H1          0.3840   -0.4040    3.7760 H         1 LIG      0.022200
     31 H2          1.2870    1.2580    1.4610 H         1 LIG      0.048700
     32 H3          1.9480   -2.0110    0.2150 H         1 LIG      0.039700
     33 H4          2.0400   -1.9170    3.7550 H         1 LIG      0.228000
     34 H5          3.0020   -6.1060    1.7960 H         1 LIG      0.291500
     35 H6          2.6160   -2.6180    5.9010 H         1 LIG     -0.007967
     36 H7          3.9030   -3.8000    5.8850 H         1 LIG     -0.007967
     37 H8          2.2540   -4.3070    6.1600 H         1 LIG     -0.007967
     38 H9         -0.3380   -2.1280    2.1130 H         1 LIG      0.044700
     39 H10        -0.3780   -2.3440    0.4310 H         1 LIG      0.044700
     40 H11        -0.0580    0.0220    0.0290 H         1 LIG      0.070700
     41 H12        -1.0840    0.0520    1.3850 H         1 LIG      0.070700
@<TRIPOS>BOND
     1    1    2 1   
     2    1    3 1   
     3    1    4 1   
     4    1   20 1   
     5    4    5 1   
     6    5    6 1   
     7    6    7 1   
     8    6   19 1   
     9    7    8 1   
    10    8    9 1   
    11    8   18 1   
    12    9   10 1   
    13    9   11 1   
    14   10   16 2   
    15   11   12 2   
    16   11   13 1   
    17   13   14 1   
    18   14   15 2   
    19   14   16 1   
    20   16   17 1   
    21   18   19 1   
    22   20   21 1   
    23   21   22 1   
    24   21   23 1   
    25   21   24 1   
    26   24   25 1   
    27   25   26 1   
    28   25   27 1   
    29   25   28 1   
    30    5   29 1   
    31    5   30 1   
    32    6   31 1   
    33    8   32 1   
    34   10   33 1   
    35   13   34 1   
    36   17   35 1   
    37   17   36 1   
    38   17   37 1   
    39   18   38 1   
    40   18   39 1   
    41   19   40 1   
    42   19   41 1   
@<TRIPOS>SUBSTRUCTURE
     1 LIG         1 TEMP              0 ****  ****    0 ROOT
