@<TRIPOS>MOLECULE
DBX
   17    17     1     0     0
SMALL
bcc


@<TRIPOS>ATOM
      1 C          -0.0480    0.0440    0.0210 C.a       1 LIG     -0.311500
      2 O           2.0000   -0.6150    1.4040 O.3       1 LIG     -0.743867
      3 S           1.6690   -0.3510    0.0470 S.6       1 LIG      1.468100
      4 C1         -0.4550    1.3700    0.0320 C.a       1 LIG      0.206100
      5 O1          1.8410   -1.6650   -0.7010 O.3       1 LIG     -0.743867
      6 C2         -0.9880   -0.9670   -0.0150 C.a       1 LIG     -0.087000
      7 O2          2.3210    0.6420   -0.7330 O.3       1 LIG     -0.743867
      8 C3         -2.7470    0.6690   -0.0200 C.a       1 LIG     -0.111000
      9 O3          0.4710    2.3650    0.0670 O.h       1 LIG     -0.543100
     10 C4         -2.3400   -0.6570   -0.0360 C.a       1 LIG      0.034100
     11 O4         -3.2660   -1.6520   -0.0720 O.h       1 LIG     -0.525100
     12 C5         -1.8060    1.6800    0.0050 C.a       1 LIG     -0.182000
     13 H          -0.6850   -1.9530   -0.0260 H         1 LIG      0.146000
     14 H1         -3.7530    0.9000   -0.0270 H         1 LIG      0.125000
     15 H2          1.3840    2.1550    0.0850 H         1 LIG      0.475000
     16 H3         -2.9910   -2.5480   -0.0830 H         1 LIG      0.408000
     17 H4         -2.1090    2.6670    0.0040 H         1 LIG      0.129000
@<TRIPOS>BOND
     1    1    6 ar  
     2    2    3 1   
     3    3    1 1   
     4    3    7 1   
     5    3    5 1   
     6    4    1 ar  
     7    4   12 ar  
     8    6   10 ar  
     9    8   10 ar  
    10    9    4 1   
    11   10   11 1   
    12   12    8 ar  
    13    6   13 1   
    14    8   14 1   
    15    9   15 1   
    16   11   16 1   
    17   12   17 1   
@<TRIPOS>SUBSTRUCTURE
     1 LIG         1 TEMP              0 ****  ****    0 ROOT
