@<TRIPOS>MOLECULE
29F
   39    41     1     0     0
SMALL
bcc


@<TRIPOS>ATOM
      1 C           5.3930    0.9540    1.2490 c3        1 LIG     -0.087100
      2 N          -1.3670   -1.4630    0.0000 n         1 LIG     -0.493400
      3 O          -3.2310   -2.7080    0.0010 o         1 LIG     -0.625500
      4 C1          4.9360    0.1980    0.0010 c3        1 LIG     -0.013700
      5 N1         -1.5080    0.8850    0.0010 nc        1 LIG     -0.616100
      6 C2          5.3930    0.9530   -1.2490 c3        1 LIG     -0.087100
      7 C3          5.5490   -1.2050    0.0010 c3        1 LIG     -0.087100
      8 C4          3.4330    0.0890    0.0010 ca        1 LIG     -0.040300
      9 C5          2.6600    1.2360    0.0000 ca        1 LIG     -0.135000
     10 C6          1.2830    1.1440   -0.0000 ca        1 LIG     -0.093000
     11 C7          0.6710   -0.1100    0.0000 ca        1 LIG     -0.155900
     12 C8          1.4570   -1.2640    0.0010 ca        1 LIG     -0.093000
     13 C9          2.8330   -1.1580   -0.0040 ca        1 LIG     -0.135000
     14 C10        -0.8030   -0.2170    0.0000 cd        1 LIG      0.547500
     15 C11        -2.7130   -1.6070    0.0000 c         1 LIG      0.708100
     16 C12        -3.5260   -0.3810    0.0000 ca        1 LIG     -0.190600
     17 C13        -4.9180   -0.4240    0.0000 ca        1 LIG     -0.059000
     18 C14        -5.6340    0.7540   -0.0000 ca        1 LIG     -0.154000
     19 C15        -4.9800    1.9790   -0.0010 ca        1 LIG     -0.095000
     20 C16        -3.6050    2.0440   -0.0010 ca        1 LIG     -0.123000
     21 C17        -2.8560    0.8640    0.0010 ca        1 LIG      0.182400
     22 H           6.4600    1.0310    1.2480 hc        1 LIG      0.038922
     23 H1          5.0740    0.4250    2.1230 hc        1 LIG      0.038922
     24 H2          4.9650    1.9350    1.2490 hc        1 LIG      0.038922
     25 H3         -0.7900   -2.2610    0.0000 hn        1 LIG      0.339500
     26 H4          6.4600    1.0300   -1.2490 hc        1 LIG      0.038922
     27 H5          4.9640    1.9330   -1.2500 hc        1 LIG      0.038922
     28 H6          5.0740    0.4230   -2.1220 hc        1 LIG      0.038922
     29 H7          6.6160   -1.1280    0.0010 hc        1 LIG      0.038922
     30 H8          5.2300   -1.7340   -0.8730 hc        1 LIG      0.038922
     31 H9          5.2300   -1.7340    0.8750 hc        1 LIG      0.038922
     32 H10         3.1140    2.1630   -0.0010 ha        1 LIG      0.140500
     33 H11         0.7070    2.0010   -0.0000 ha        1 LIG      0.145000
     34 H12         1.0100   -2.1940    0.0050 ha        1 LIG      0.145000
     35 H13         3.4150   -2.0100   -0.0110 ha        1 LIG      0.140500
     36 H14        -5.4100   -1.3310    0.0000 ha        1 LIG      0.158000
     37 H15        -6.6660    0.7250    0.0010 ha        1 LIG      0.139000
     38 H16        -5.5320    2.8510   -0.0020 ha        1 LIG      0.137000
     39 H17        -3.1290    2.9600   -0.0030 ha        1 LIG      0.153000
@<TRIPOS>BOND
     1    1    4 1   
     2    2   14 1   
     3    2   15 1   
     4    3   15 2   
     5    4    6 1   
     6    4    7 1   
     7    4    8 1   
     8    5   14 2   
     9    5   21 1   
    10    8    9 ar  
    11    8   13 ar  
    12    9   10 ar  
    13   10   11 ar  
    14   11   12 ar  
    15   11   14 1   
    16   12   13 ar  
    17   15   16 1   
    18   16   17 ar  
    19   16   21 ar  
    20   17   18 ar  
    21   18   19 ar  
    22   19   20 ar  
    23   20   21 ar  
    24    1   22 1   
    25    1   23 1   
    26    1   24 1   
    27    2   25 1   
    28    6   26 1   
    29    6   27 1   
    30    6   28 1   
    31    7   29 1   
    32    7   30 1   
    33    7   31 1   
    34    9   32 1   
    35   10   33 1   
    36   12   34 1   
    37   13   35 1   
    38   17   36 1   
    39   18   37 1   
    40   19   38 1   
    41   20   39 1   
@<TRIPOS>SUBSTRUCTURE
     1 LIG         1 TEMP              0 ****  ****    0 ROOT
