@<TRIPOS>MOLECULE
FON
   55    57     1     0     0
SMALL
bcc


@<TRIPOS>ATOM
      1 N           1.1320    2.2710    5.4200 na        0 UNK     -0.716000
      2 C           2.2320    1.5960    5.8530 cc        0 UNK      0.876100
      3 N1          3.3410    2.3010    6.2430 nh        0 UNK     -0.889800
      4 N2          2.2510    0.2820    5.9110 nd        0 UNK     -0.785100
      5 C1          1.1840   -0.4430    5.5390 c         0 UNK      0.729700
      6 O           1.2160   -1.6640    5.5980 o         0 UNK     -0.660100
      7 C2          0.0250    0.2160    5.0810 cc        0 UNK     -0.250600
      8 N3         -1.1130   -0.5170    4.6910 n         0 UNK     -0.347000
      9 C3         -2.1510    0.1620    3.9010 c3        0 UNK      0.024700
     10 C4         -2.3870    1.5470    4.5230 c3        0 UNK      0.180800
     11 N4         -1.0990    2.2530    4.5730 nh        0 UNK     -0.728000
     12 C5          0.0170    1.5810    5.0220 cd        0 UNK      0.329000
     13 C6         -1.6820    0.3180    2.4530 c3        0 UNK      0.185800
     14 N5         -1.4590   -1.0050    1.8660 nh        0 UNK     -0.720600
     15 C7         -0.1640   -1.3440   -2.0730 ca        0 UNK     -0.171600
     16 C8         -0.3870   -2.4920   -1.3080 ca        0 UNK     -0.067000
     17 C9         -0.8150   -2.3770   -0.0050 ca        0 UNK     -0.208000
     18 C10        -1.0260   -1.1180    0.5500 ca        0 UNK      0.144600
     19 C11        -0.8110    0.0270   -0.2110 ca        0 UNK     -0.208000
     20 C12        -0.3770   -0.0810   -1.5120 ca        0 UNK     -0.067000
     21 C13         0.2950   -1.4640   -3.4700 c         0 UNK      0.653700
     22 O1          0.4800   -2.5630   -3.9560 o         0 UNK     -0.608100
     23 N           0.5090   -0.3560   -4.2060 n         1 GLU     -0.482900
     24 CA          0.9660   -0.4750   -5.5930 c3        1 GLU     -0.019300
     25 CB          0.4440    0.7110   -6.4060 c3        1 GLU     -0.048400
     26 CG         -1.0850    0.7190   -6.3710 c3        1 GLU     -0.186400
     27 CD         -1.5990    1.8880   -7.1720 c         1 GLU      0.904600
     28 OE1        -0.8210    2.6370   -7.7140 o         1 GLU     -0.867800
     29 OE2        -2.9200    2.0970   -7.2820 o         1 GLU     -0.867800
     30 C           2.4720   -0.4840   -5.6270 c         1 GLU      0.888600
     31 O           3.0530   -1.0850   -6.4990 o         1 GLU     -0.873300
     32 OXT         3.1680    0.1760   -4.6890 o         1 GLU     -0.873300
     33 C14        -1.2480   -1.8130    5.0350 c         0 UNK      0.660900
     34 O2         -2.1800   -2.4610    4.6060 o         0 UNK     -0.659100
     35 H           1.1370    3.2550    5.3930 hn        0 UNK      0.525800
     36 H1          3.3380    3.2850    6.2040 hn        0 UNK      0.466800
     37 H2          4.1410    1.8240    6.5620 hn        0 UNK      0.466800
     38 H3         -3.0560   -0.4090    3.9060 h1        0 UNK      0.081700
     39 H4         -2.7790    1.4380    5.5130 h1        0 UNK      0.050200
     40 H5         -3.0900    2.1010    3.9360 h1        0 UNK      0.050200
     41 H6         -1.0340    3.1940    4.2900 hn        0 UNK      0.420800
     42 H7         -0.7690    0.8760    2.4320 h1        0 UNK      0.050700
     43 H8         -2.4300    0.8360    1.8900 h1        0 UNK      0.050700
     44 H9         -1.6160   -1.8150    2.4040 hn        0 UNK      0.407800
     45 H10        -0.2310   -3.4250   -1.7200 ha        0 UNK      0.148500
     46 H11        -0.9800   -3.2240    0.5610 ha        0 UNK      0.126500
     47 H12        -0.9770    0.9580    0.2010 ha        0 UNK      0.126500
     48 H13        -0.2090    0.7690   -2.0730 ha        0 UNK      0.148500
     49 H           0.3580    0.5330   -3.8120 hn        1 GLU      0.284500
     50 HA          0.5950   -1.3860   -6.0140 h1        1 GLU      0.079700
     51 HB1         0.7770    0.6230   -7.4190 hc        1 GLU      0.052200
     52 HB2         0.8150    1.6230   -5.9860 hc        1 GLU      0.052200
     53 HG1        -1.4180    0.8060   -5.3580 hc        1 GLU      0.023700
     54 HG2        -1.4560   -0.1920   -6.7910 hc        1 GLU      0.023700
     55 H14        -0.5590   -2.2550    5.6630 h5        0 UNK      0.090200
@<TRIPOS>BOND
     1    1    2 1   
     2    1   12 1   
     3    2    3 1   
     4    2    4 2   
     5    4    5 1   
     6    5    6 2   
     7    5    7 1   
     8    7    8 1   
     9    7   12 2   
    10    8    9 1   
    11    8   33 1   
    12    9   10 1   
    13    9   13 1   
    14   10   11 1   
    15   11   12 1   
    16   13   14 1   
    17   14   18 1   
    18   15   16 ar  
    19   15   20 ar  
    20   15   21 1   
    21   16   17 ar  
    22   17   18 ar  
    23   18   19 ar  
    24   19   20 ar  
    25   21   22 2   
    26   21   23 1   
    27   23   24 1   
    28   24   25 1   
    29   24   30 1   
    30   25   26 1   
    31   26   27 1   
    32   27   28 1   
    33   27   29 1   
    34   30   31 1   
    35   30   32 1   
    36   33   34 2   
    37    1   35 1   
    38    3   36 1   
    39    3   37 1   
    40    9   38 1   
    41   10   39 1   
    42   10   40 1   
    43   11   41 1   
    44   13   42 1   
    45   13   43 1   
    46   14   44 1   
    47   16   45 1   
    48   17   46 1   
    49   19   47 1   
    50   20   48 1   
    51   23   49 1   
    52   24   50 1   
    53   25   51 1   
    54   25   52 1   
    55   26   53 1   
    56   26   54 1   
    57   33   55 1   
@<TRIPOS>SUBSTRUCTURE
     1 UNK         1 TEMP              0 ****  ****    0 ROOT
