@<TRIPOS>MOLECULE
BDM
   55    56     1     0     0
SMALL
bcc


@<TRIPOS>ATOM
      1 N           4.4510   -4.1350    0.5780 N.a       1 LIG     -0.388900
      2 C           3.3860   -4.6400    1.1840 C.a       1 LIG      0.567000
      3 N1          3.5620   -5.5640    2.1990 N.h       1 LIG     -0.473900
      4 N2          2.1570   -4.2820    0.8430 N.b       1 LIG     -0.753000
      5 C1          1.9560   -3.3930   -0.1250 C.a       1 LIG      0.604200
      6 N3          0.6700   -3.0200   -0.4800 N.h       1 LIG     -0.831500
      7 C2          3.0590   -2.8480   -0.7860 C.a       1 LIG     -0.221600
      8 C3          4.3230   -3.2490   -0.3980 C.a       1 LIG     -0.087300
      9 C4          2.8750   -1.8410   -1.8920 C.3       1 LIG     -0.036800
     10 C5          2.7330   -0.4630   -1.2980 C.a       1 LIG      0.008700
     11 C6          1.4810    0.0180   -0.9650 C.a       1 LIG     -0.219000
     12 C7          1.3470    1.2860   -0.4190 C.a       1 LIG      0.173100
     13 O           0.1150    1.7590   -0.0910 O.2       1 LIG     -0.336900
     14 C8          2.4710    2.0690   -0.2020 C.a       1 LIG     -0.085900
     15 Br          2.2930    3.7980    0.5420 B.r       1 LIG     -0.090100
     16 C9          3.7260    1.5850   -0.5420 C.a       1 LIG      0.157100
     17 O1          4.8290    2.3520   -0.3360 O.2       1 LIG     -0.329900
     18 C10         3.8540    0.3160   -1.0880 C.a       1 LIG     -0.233000
     19 C11         5.9520    1.5850   -0.7750 C.3       1 LIG      0.115700
     20 C12        -0.8230    0.7330   -0.4230 C.3       1 LIG      0.130400
     21 C13        -2.2370    1.2040   -0.0770 C.3       1 LIG     -0.109400
     22 C14        -3.2410    0.1060   -0.4330 C.3       1 LIG     -0.107400
     23 C15        -4.6550    0.5770   -0.0870 C.3       1 LIG     -0.089700
     24 C16        -5.6700   -0.4680   -0.5560 C.3       1 LIG     -0.061400
     25 C17        -7.0880    0.0580   -0.3240 C.3       1 LIG     -0.188400
     26 C18        -4.7740    0.7580    1.4040 C.        1 LIG      0.889600
     27 O2         -5.0680    1.9020    1.8860 O.3       1 LIG     -0.616800
     28 O3         -4.5790   -0.2320    2.1840 O.3       1 LIG     -0.616800
     29 C19        -8.0870   -0.9720   -0.7860 C.        1 LIG      0.901600
     30 O4         -7.6830   -2.0760   -1.2790 O.3       1 LIG     -0.855800
     31 O5         -9.3360   -0.7380   -0.6830 O.3       1 LIG     -0.855800
     32 H           5.3500   -4.4230    0.8570 H         1 LIG      0.271700
     33 H1          4.4700   -5.8390    2.4620 H         1 LIG      0.232200
     34 H2          2.7790   -5.9470    2.6580 H         1 LIG      0.232200
     35 H3         -0.1030   -3.4080   -0.0100 H         1 LIG      0.410300
     36 H4          0.5290   -2.3660   -1.2030 H         1 LIG      0.410300
     37 H5          5.1590   -2.8620   -0.8640 H         1 LIG      0.152000
     38 H6          1.9940   -2.0810   -2.4500 H         1 LIG      0.118700
     39 H7          3.7260   -1.8640   -2.5410 H         1 LIG      0.118700
     40 H8          0.6450   -0.5670   -1.1230 H         1 LIG      0.203000
     41 H9          4.7880   -0.0460   -1.3370 H         1 LIG      0.143000
     42 H10         6.8490    2.1510   -0.6320 H         1 LIG      0.041367
     43 H11         5.8400    1.3510   -1.8130 H         1 LIG      0.041367
     44 H12         6.0080    0.6790   -0.2090 H         1 LIG      0.041367
     45 H13        -0.5960   -0.1520    0.1340 H         1 LIG      0.062200
     46 H14        -0.7640    0.5210   -1.4700 H         1 LIG      0.062200
     47 H15        -2.4640    2.0890   -0.6330 H         1 LIG      0.046700
     48 H16        -2.2960    1.4160    0.9700 H         1 LIG      0.046700
     49 H17        -3.0140   -0.7790    0.1230 H         1 LIG      0.095700
     50 H18        -3.1820   -0.1060   -1.4800 H         1 LIG      0.095700
     51 H19        -4.8500    1.5090   -0.5760 H         1 LIG      0.059700
     52 H20        -5.5310   -1.3740   -0.0030 H         1 LIG      0.047200
     53 H21        -5.5270   -0.6610   -1.5990 H         1 LIG      0.047200
     54 H22        -7.2280    0.9640   -0.8770 H         1 LIG      0.031200
     55 H23        -7.2310    0.2510    0.7190 H         1 LIG      0.031200
@<TRIPOS>BOND
     1    1    2 ar  
     2    1    8 ar  
     3    2    3 1   
     4    2    4 ar  
     5    4    5 ar  
     6    5    6 1   
     7    5    7 ar  
     8    7    8 ar  
     9    7    9 1   
    10    9   10 1   
    11   10   11 ar  
    12   10   18 ar  
    13   11   12 ar  
    14   12   13 1   
    15   12   14 ar  
    16   13   20 1   
    17   14   15 1   
    18   14   16 ar  
    19   16   17 1   
    20   16   18 ar  
    21   17   19 1   
    22   20   21 1   
    23   21   22 1   
    24   22   23 1   
    25   23   24 1   
    26   23   26 1   
    27   24   25 1   
    28   25   29 1   
    29   26   27 1   
    30   26   28 1   
    31   29   30 1   
    32   29   31 1   
    33    1   32 1   
    34    3   33 1   
    35    3   34 1   
    36    6   35 1   
    37    6   36 1   
    38    8   37 1   
    39    9   38 1   
    40    9   39 1   
    41   11   40 1   
    42   18   41 1   
    43   19   42 1   
    44   19   43 1   
    45   19   44 1   
    46   20   45 1   
    47   20   46 1   
    48   21   47 1   
    49   21   48 1   
    50   22   49 1   
    51   22   50 1   
    52   23   51 1   
    53   24   52 1   
    54   24   53 1   
    55   25   54 1   
    56   25   55 1   
@<TRIPOS>SUBSTRUCTURE
     1 LIG         1 TEMP              0 ****  ****    0 ROOT
