@<TRIPOS>MOLECULE
INS
   24    24     1     0     0
SMALL
bcc


@<TRIPOS>ATOM
      1 C           1.2120   -0.8370    0.5550 C.3       1 LIG      0.076267
      2 C1         -0.0740   -1.5710    0.1690 C.3       1 LIG      0.076267
      3 C2         -1.2830   -0.7200    0.5610 C.3       1 LIG      0.076267
      4 C3         -1.2220    0.6220   -0.1720 C.3       1 LIG      0.076267
      5 C4          0.0640    1.3560    0.2140 C.3       1 LIG      0.076267
      6 C5          1.2740    0.5040   -0.1770 C.3       1 LIG      0.076267
      7 O           2.3420   -1.6320    0.1900 O.h       1 LIG     -0.568300
      8 O1         -0.0880   -1.7970   -1.2410 O.h       1 LIG     -0.568300
      9 O2         -2.4840   -1.4050    0.2010 O.h       1 LIG     -0.568300
     10 O3         -2.3520    1.4170    0.1940 O.h       1 LIG     -0.568300
     11 O4          0.1220    2.6090   -0.4700 O.h       1 LIG     -0.568300
     12 O5          2.4750    1.1890    0.1830 O.h       1 LIG     -0.568300
     13 H           1.2220   -0.6670    1.6110 H         1 LIG      0.084367
     14 H1         -0.1170   -2.5100    0.6810 H         1 LIG      0.084367
     15 H2         -1.2720   -0.5500    1.6170 H         1 LIG      0.084367
     16 H3         -1.2330    0.4520   -1.2280 H         1 LIG      0.084367
     17 H4          0.0740    1.5270    1.2700 H         1 LIG      0.084367
     18 H5          1.2640    0.3340   -1.2330 H         1 LIG      0.084367
     19 H6          2.3330   -1.7860   -0.7680 H         1 LIG      0.407667
     20 H7         -0.0490   -0.9460   -1.7050 H         1 LIG      0.407667
     21 H8         -2.4940   -1.5590   -0.7570 H         1 LIG      0.407667
     22 H9         -2.3420    1.5710    1.1520 H         1 LIG      0.407667
     23 H10         0.1130    2.4550   -1.4280 H         1 LIG      0.407667
     24 H11         2.4850    1.3430    1.1410 H         1 LIG      0.407667
@<TRIPOS>BOND
     1    1    2 1   
     2    1    6 1   
     3    1    7 1   
     4    2    3 1   
     5    2    8 1   
     6    3    4 1   
     7    3    9 1   
     8    4    5 1   
     9    4   10 1   
    10    5    6 1   
    11    5   11 1   
    12    6   12 1   
    13    1   13 1   
    14    2   14 1   
    15    3   15 1   
    16    4   16 1   
    17    5   17 1   
    18    6   18 1   
    19    7   19 1   
    20    8   20 1   
    21    9   21 1   
    22   10   22 1   
    23   11   23 1   
    24   12   24 1   
@<TRIPOS>SUBSTRUCTURE
     1 LIG         1 TEMP              0 ****  ****    0 ROOT
