@<TRIPOS>MOLECULE
GRO
   20    20     1     0     0
SMALL
bcc


@<TRIPOS>ATOM
      1 O           0.2310   -0.3800   -3.2420 o         1 LIG     -0.837300
      2 C           0.3770   -0.3120   -1.9090 c         1 LIG      0.922600
      3 O1          1.4720   -0.4410   -1.4140 o         1 LIG     -0.837300
      4 C1         -0.8230   -0.0740   -1.0310 c3        1 LIG     -0.166400
      5 C2         -1.4690    1.2620   -1.4010 c3        1 LIG     -0.061100
      6 C3         -0.3910   -0.0400    0.4120 ca        1 LIG     -0.014300
      7 C4         -0.9110   -0.9520    1.3100 ca        1 LIG     -0.133500
      8 C5         -0.5150   -0.9210    2.6340 ca        1 LIG     -0.147500
      9 C6          0.4020    0.0210    3.0590 ca        1 LIG     -0.166000
     10 C7          0.9230    0.9330    2.1600 ca        1 LIG     -0.147500
     11 C8          0.5290    0.8990    0.8350 ca        1 LIG     -0.133500
     12 H          -1.5310   -0.8640   -1.1730 hc        1 LIG      0.043700
     13 H1         -0.7610    2.0520   -1.2590 hc        1 LIG      0.019700
     14 H2         -2.3220    1.4310   -0.7770 hc        1 LIG      0.019700
     15 H3         -1.7760    1.2380   -2.4260 hc        1 LIG      0.019700
     16 H4         -1.5950   -1.6560    0.9920 ha        1 LIG      0.151500
     17 H5         -0.9040   -1.6010    3.3050 ha        1 LIG      0.106500
     18 H6          0.6980    0.0440    4.0470 ha        1 LIG      0.103000
     19 H7          1.6060    1.6390    2.4780 ha        1 LIG      0.106500
     20 H8          0.9220    1.5750    0.1620 ha        1 LIG      0.151500
@<TRIPOS>BOND
     1    1    2 1   
     2    2    3 1   
     3    2    4 1   
     4    4    5 1   
     5    4    6 1   
     6    6    7 ar  
     7    6   11 ar  
     8    7    8 ar  
     9    8    9 ar  
    10    9   10 ar  
    11   10   11 ar  
    12    4   12 1   
    13    5   13 1   
    14    5   14 1   
    15    5   15 1   
    16    7   16 1   
    17    8   17 1   
    18    9   18 1   
    19   10   19 1   
    20   11   20 1   
@<TRIPOS>SUBSTRUCTURE
     1 LIG         1 TEMP              0 ****  ****    0 ROOT
