@<TRIPOS>MOLECULE
F4W
   29    31     1     0     0
SMALL
bcc


@<TRIPOS>ATOM
      1 O           5.4830   -0.6570    0.0410 o         1 LIG     -0.836800
      2 C           4.9560    0.4310    0.0340 c         1 LIG      0.908600
      3 O1          5.7100    1.5410    0.0360 o         1 LIG     -0.836800
      4 C1          3.4540    0.5410    0.0160 c3        1 LIG     -0.212400
      5 C2          2.8400   -0.8610    0.0110 c3        1 LIG     -0.105700
      6 C3          1.3370   -0.7510   -0.0070 cc        1 LIG      0.528900
      7 N           0.7910    0.4290   -0.0140 nd        1 LIG     -0.660100
      8 C4         -0.5520    0.5860   -0.0300 cd        1 LIG      0.209300
      9 S          -1.5370    2.0390   -0.0420 ss        1 LIG      0.038200
     10 C5         -3.0360    1.1130   -0.0580 cd        1 LIG     -0.209400
     11 C6         -4.5390    1.3780   -0.0740 c3        1 LIG      0.020900
     12 C7         -5.1800    0.0480    0.3680 c3        1 LIG     -0.078400
     13 C8         -4.1100   -0.9710   -0.0700 c3        1 LIG     -0.014100
     14 C9         -2.7950   -0.1920   -0.0560 cc        1 LIG     -0.025300
     15 C10        -1.3710   -0.5310   -0.0390 cc        1 LIG     -0.248600
     16 C11        -0.7530   -1.8200   -0.0310 c         1 LIG      0.724100
     17 O2         -1.4280   -2.8350   -0.0390 o         1 LIG     -0.644500
     18 N1          0.5940   -1.8870   -0.0200 n         1 LIG     -0.459400
     19 H           3.1460    1.0690   -0.8620 hc        1 LIG      0.042200
     20 H1          3.1250    1.0720    0.8850 hc        1 LIG      0.042200
     21 H2          3.1480   -1.3890    0.8890 hc        1 LIG      0.067700
     22 H3          3.1690   -1.3910   -0.8580 hc        1 LIG      0.067700
     23 H4         -4.8640    1.6440   -1.0580 hc        1 LIG      0.036700
     24 H5         -4.8120    2.1900    0.5670 hc        1 LIG      0.036700
     25 H6         -6.1100   -0.1230   -0.1330 hc        1 LIG      0.034700
     26 H7         -5.4210    0.0060    1.4090 hc        1 LIG      0.034700
     27 H8         -4.3200   -1.3380   -1.0530 hc        1 LIG      0.063200
     28 H9         -4.0790   -1.8250    0.5750 hc        1 LIG      0.063200
     29 H10         1.0410   -2.7640   -0.0210 hn        1 LIG      0.411500
@<TRIPOS>BOND
     1    1    2 1   
     2    2    3 1   
     3    2    4 1   
     4    4    5 1   
     5    5    6 1   
     6    6    7 2   
     7    6   18 1   
     8    7    8 1   
     9    8    9 ar  
    10    8   15 ar  
    11    9   10 ar  
    12   10   11 1   
    13   10   14 ar  
    14   11   12 1   
    15   12   13 1   
    16   13   14 1   
    17   14   15 ar  
    18   15   16 1   
    19   16   17 2   
    20   16   18 1   
    21    4   19 1   
    22    4   20 1   
    23    5   21 1   
    24    5   22 1   
    25   11   23 1   
    26   11   24 1   
    27   12   25 1   
    28   12   26 1   
    29   13   27 1   
    30   13   28 1   
    31   18   29 1   
@<TRIPOS>SUBSTRUCTURE
     1 LIG         1 TEMP              0 ****  ****    0 ROOT
