@<TRIPOS>MOLECULE
MS0
   24    25     1     0     0
SMALL
bcc


@<TRIPOS>ATOM
      1 O           0.1330    2.3570   -0.2030 os        1 LIG     -0.229200
      2 C          -0.7080    1.3100   -0.0800 ca        1 LIG      0.085100
      3 C1          0.0500    0.2170    0.3730 ca        1 LIG     -0.122800
      4 C2          1.4230    0.7210    0.5060 cc        1 LIG     -0.016400
      5 C3          1.3850    2.0090    0.1420 cd        1 LIG     -0.096900
      6 C4          2.6310   -0.0560    0.9620 c3        1 LIG     -0.160200
      7 C5          3.2300   -0.7870   -0.2120 c         1 LIG      0.922600
      8 O1          4.3220   -1.5490   -0.0420 o         1 LIG     -0.838800
      9 O2          2.7270   -0.6880   -1.3060 o         1 LIG     -0.838800
     10 C6         -0.5600   -1.0170    0.5920 ca        1 LIG     -0.023000
     11 C7         -1.9000   -1.1620    0.3650 ca        1 LIG     -0.242000
     12 C8         -2.6580   -0.0850   -0.0840 ca        1 LIG      0.122100
     13 C9         -2.0680    1.1470   -0.3060 ca        1 LIG     -0.183000
     14 O3         -3.9900   -0.2440   -0.3060 os        1 LIG     -0.342900
     15 C10        -4.5390   -1.5400   -0.0580 c3        1 LIG      0.120700
     16 H           2.1990    2.6430    0.1280 h4        1 LIG      0.174000
     17 H1          2.3390   -0.7620    1.7110 hc        1 LIG      0.040700
     18 H2          3.3550    0.6180    1.3700 hc        1 LIG      0.040700
     19 H3         -0.0020   -1.8190    0.9240 ha        1 LIG      0.211000
     20 H4         -2.3520   -2.0750    0.5270 ha        1 LIG      0.127000
     21 H5         -2.6370    1.9410   -0.6380 ha        1 LIG      0.146000
     22 H6         -5.5880   -1.5300   -0.2700 h1        1 LIG      0.035033
     23 H7         -4.3850   -1.8020    0.9680 h1        1 LIG      0.035033
     24 H8         -4.0550   -2.2590   -0.6860 h1        1 LIG      0.035033
@<TRIPOS>BOND
     1    2    1 1   
     2    2   13 ar  
     3    3    2 ar  
     4    4    3 1   
     5    4    5 2   
     6    5    1 1   
     7    6    4 1   
     8    7    6 1   
     9    8    7 1   
    10    9    7 1   
    11   10    3 ar  
    12   10   11 ar  
    13   11   12 ar  
    14   12   13 ar  
    15   12   14 1   
    16   14   15 1   
    17    5   16 1   
    18    6   17 1   
    19    6   18 1   
    20   10   19 1   
    21   11   20 1   
    22   13   21 1   
    23   15   22 1   
    24   15   23 1   
    25   15   24 1   
@<TRIPOS>SUBSTRUCTURE
     1 LIG         1 TEMP              0 ****  ****    0 ROOT
