@<TRIPOS>MOLECULE
1W6
   38    40     1     0     0
SMALL
bcc


@<TRIPOS>ATOM
      1 O           1.8160   -2.5670    0.0040 o         1 LIG     -0.585100
      2 C           1.5610   -1.3780    0.0060 c         1 LIG      0.607800
      3 C1          2.6570   -0.3870    0.0030 cc        1 LIG      0.273200
      4 S           2.4350    1.3570    0.0130 ss        1 LIG      0.101900
      5 C2          4.1820    1.5880    0.0030 ca        1 LIG     -0.108100
      6 C3          4.9600    2.7460    0.0040 ca        1 LIG     -0.095000
      7 C4          6.3320    2.6530   -0.0060 ca        1 LIG     -0.106000
      8 C5          6.9450    1.4060   -0.0160 ca        1 LIG     -0.132000
      9 C6          6.2060    0.2650   -0.0160 ca        1 LIG     -0.061000
     10 C7          4.7930    0.3250   -0.0070 ca        1 LIG      0.074400
     11 N           3.9140   -0.6780   -0.0000 nd        1 LIG     -0.489100
     12 N1          0.2780   -0.9640    0.0040 n         1 LIG     -0.410100
     13 C8         -0.7490   -1.8930    0.0000 cd        1 LIG      0.094500
     14 S1         -0.5280   -3.5830   -0.0020 ss        1 LIG      0.150200
     15 C9         -2.2560   -3.8870   -0.0060 cd        1 LIG     -0.233100
     16 C10        -2.9350   -2.7490   -0.0060 cc        1 LIG     -0.103000
     17 C11        -2.0850   -1.5790    0.0040 cc        1 LIG     -0.263600
     18 C12        -2.5950   -0.2050    0.0060 c         1 LIG      0.723700
     19 O1         -1.8190    0.7320    0.0150 o         1 LIG     -0.562100
     20 N2         -3.9240    0.0200   -0.0020 n         1 LIG     -0.578500
     21 C13        -4.3930    1.2830    0.0000 c         1 LIG      0.747100
     22 O2         -3.6190    2.2190    0.0090 o         1 LIG     -0.527000
     23 O3         -5.7200    1.5080   -0.0070 os        1 LIG     -0.457900
     24 C14        -6.1540    2.8940   -0.0050 c3        1 LIG      0.150400
     25 C15        -7.6830    2.9490   -0.0140 c3        1 LIG     -0.102100
     26 H           4.5060    3.6730    0.0120 ha        1 LIG      0.143000
     27 H1          6.9070    3.5100   -0.0060 ha        1 LIG      0.140000
     28 H2          7.9750    1.3450   -0.0240 ha        1 LIG      0.141000
     29 H3          6.6800   -0.6520   -0.0230 ha        1 LIG      0.158000
     30 H4          0.0710   -0.0020    0.0050 hn        1 LIG      0.380500
     31 H5         -2.6860   -4.8250   -0.0080 h4        1 LIG      0.179000
     32 H6         -3.9660   -2.7020   -0.0130 ha        1 LIG      0.153000
     33 H7         -4.5520   -0.7380   -0.0090 hn        1 LIG      0.338500
     34 H8         -5.7740    3.3880   -0.8750 h1        1 LIG      0.055700
     35 H9         -5.7840    3.3820    0.8720 h1        1 LIG      0.055700
     36 H10        -8.0520    2.4610   -0.8910 hc        1 LIG      0.049033
     37 H11        -8.0030    3.9700   -0.0130 hc        1 LIG      0.049033
     38 H12        -8.0630    2.4550    0.8560 hc        1 LIG      0.049033
@<TRIPOS>BOND
     1    2    1 2   
     2    2    3 1   
     3    3   11 2   
     4    4    3 1   
     5    4    5 1   
     6    5   10 ar  
     7    6    5 ar  
     8    6    7 ar  
     9    7    8 ar  
    10    9    8 ar  
    11   10    9 ar  
    12   11   10 1   
    13   12    2 1   
    14   13   14 ar  
    15   13   12 1   
    16   15   14 ar  
    17   16   17 ar  
    18   16   15 ar  
    19   17   13 ar  
    20   18   20 1   
    21   18   17 1   
    22   19   18 2   
    23   21   23 1   
    24   21   20 1   
    25   22   21 2   
    26   23   24 1   
    27   24   25 1   
    28    6   26 1   
    29    7   27 1   
    30    8   28 1   
    31    9   29 1   
    32   12   30 1   
    33   15   31 1   
    34   16   32 1   
    35   20   33 1   
    36   24   34 1   
    37   24   35 1   
    38   25   36 1   
    39   25   37 1   
    40   25   38 1   
@<TRIPOS>SUBSTRUCTURE
     1 LIG         1 TEMP              0 ****  ****    0 ROOT
