@<TRIPOS>MOLECULE
ACA
   22    21     1     0     0
SMALL
bcc


@<TRIPOS>ATOM
      1 C          -0.0690    0.0020   -2.7630 C.        1 LIG      0.889600
      2 O          -1.2760   -0.0160   -2.7140 O.3       1 LIG     -0.606300
      3 O1          0.5530    0.0160   -3.9520 O.3       1 LIG     -0.606300
      4 C1          0.7360    0.0090   -1.4900 C.3       1 LIG     -0.126400
      5 C2         -0.2100   -0.0080   -0.2880 C.3       1 LIG     -0.078400
      6 C3          0.6070   -0.0010    1.0040 C.3       1 LIG     -0.079400
      7 C4         -0.3380   -0.0200    2.2070 C.3       1 LIG     -0.091400
      8 C5          0.4790   -0.0120    3.5000 C.3       1 LIG      0.152800
      9 N          -0.4280   -0.0300    4.6540 N.4       1 LIG     -1.120600
     10 H           1.3410    0.8910   -1.4550 H         1 LIG      0.078200
     11 H1          1.3650   -0.8560   -1.4610 H         1 LIG      0.078200
     12 H2         -0.8150   -0.8900   -0.3230 H         1 LIG      0.058200
     13 H3         -0.8390    0.8570   -0.3170 H         1 LIG      0.058200
     14 H4          1.2110    0.8820    1.0390 H         1 LIG      0.042700
     15 H5          1.2360   -0.8660    1.0320 H         1 LIG      0.042700
     16 H6         -0.9410   -0.9030    2.1720 H         1 LIG      0.053700
     17 H7         -0.9680    0.8450    2.1790 H         1 LIG      0.053700
     18 H8          1.0830    0.8710    3.5350 H         1 LIG      0.027200
     19 H9          1.1090   -0.8770    3.5290 H         1 LIG      0.027200
     20 H10        -1.0280    0.7940    4.6270 H         1 LIG      0.382467
     21 H11         0.1180   -0.0250    5.5160 H         1 LIG      0.382467
     22 H12        -1.0040   -0.8710    4.6210 H         1 LIG      0.382467
@<TRIPOS>BOND
     1    1    2 1   
     2    1    3 1   
     3    1    4 1   
     4    4    5 1   
     5    5    6 1   
     6    6    7 1   
     7    7    8 1   
     8    8    9 1   
     9    4   10 1   
    10    4   11 1   
    11    5   12 1   
    12    5   13 1   
    13    6   14 1   
    14    6   15 1   
    15    7   16 1   
    16    7   17 1   
    17    8   18 1   
    18    8   19 1   
    19    9   20 1   
    20    9   21 1   
    21    9   22 1   
@<TRIPOS>SUBSTRUCTURE
     1 LIG         1 TEMP              0 ****  ****    0 ROOT
