@<TRIPOS>MOLECULE
VIB
   35    36     1     0     0
SMALL
bcc


@<TRIPOS>ATOM
      1 C           5.0380    1.5780    1.3540 C.3       1 LIG     -0.150400
      2 N           2.5580   -2.2300   -0.1660 N.h       1 LIG     -0.930500
      3 C1         -1.0960    1.5220   -1.0630 C.3       1 LIG     -0.067800
      4 O          -5.6530    1.6500    0.3220 O.h       1 LIG     -0.597800
      5 C2         -4.6140    0.7690   -0.1100 C.3       1 LIG      0.131400
      6 C3         -3.4320    0.8610    0.8570 C.3       1 LIG     -0.058100
      7 C4         -0.6150   -2.0050   -0.1420 C.c       1 LIG     -0.109400
      8 S          -2.0480   -1.7830    0.8140 S.3       1 LIG      0.311200
      9 C5         -2.3370   -0.0680    0.4010 C.c       1 LIG     -0.139400
     10 C6         -1.2920    0.1670   -0.4330 C.d       1 LIG     -0.021600
     11 N1         -0.4580   -0.8200   -0.6860 N.a       1 LIG      0.017900
     12 C7          0.6730   -0.5900   -1.5880 C.3       1 LIG      0.099600
     13 C8          2.7200   -0.8540   -0.1320 C.a       1 LIG      0.687200
     14 N2          3.7300   -0.3090    0.5390 N.b       1 LIG     -0.748000
     15 C9          3.8840    0.9990    0.5770 C.a       1 LIG      0.729300
     16 N3          3.0610    1.8140   -0.0500 N.b       1 LIG     -0.710000
     17 C10         2.0340    1.3460   -0.7450 C.a       1 LIG      0.498200
     18 C11         1.8290   -0.0180   -0.8080 C.a       1 LIG     -0.480900
     19 H           5.6030    0.7850    1.7980 H         1 LIG      0.082033
     20 H1          4.6630    2.2220    2.1220 H         1 LIG      0.082033
     21 H2          5.6670    2.1380    0.6940 H         1 LIG      0.082033
     22 H3          3.1910   -2.8120    0.3130 H         1 LIG      0.420300
     23 H4          1.8100   -2.6250   -0.6700 H         1 LIG      0.420300
     24 H5         -1.8710    2.1830   -0.7360 H         1 LIG      0.091367
     25 H6         -1.1330    1.4290   -2.1280 H         1 LIG      0.091367
     26 H7         -0.1450    1.9160   -0.7720 H         1 LIG      0.091367
     27 H8         -6.4020    1.5910   -0.2910 H         1 LIG      0.416000
     28 H9         -4.2940    1.0490   -1.0920 H         1 LIG      0.065200
     29 H10        -4.9830   -0.2350   -0.1280 H         1 LIG      0.065200
     30 H11        -3.7520    0.5810    1.8390 H         1 LIG      0.082200
     31 H12        -3.0630    1.8650    0.8750 H         1 LIG      0.082200
     32 H13        -0.0350   -2.8510   -0.2540 H         1 LIG      0.247000
     33 H14         0.3840    0.0990   -2.3540 H         1 LIG      0.092200
     34 H15         0.9680   -1.5170   -2.0340 H         1 LIG      0.092200
     35 H16         1.3950    1.9930   -1.2330 H         1 LIG      0.037100
@<TRIPOS>BOND
     1    1   15 1   
     2    2   13 1   
     3    3   10 1   
     4    4    5 1   
     5    5    6 1   
     6    6    9 1   
     7    7    8 ar  
     8    7   11 ar  
     9    8    9 ar  
    10    9   10 ar  
    11   10   11 ar  
    12   11   12 1   
    13   12   18 1   
    14   13   14 ar  
    15   13   18 ar  
    16   14   15 ar  
    17   15   16 ar  
    18   16   17 ar  
    19   17   18 ar  
    20    1   19 1   
    21    1   20 1   
    22    1   21 1   
    23    2   22 1   
    24    2   23 1   
    25    3   24 1   
    26    3   25 1   
    27    3   26 1   
    28    4   27 1   
    29    5   28 1   
    30    5   29 1   
    31    6   30 1   
    32    6   31 1   
    33    7   32 1   
    34   12   33 1   
    35   12   34 1   
    36   17   35 1   
@<TRIPOS>SUBSTRUCTURE
     1 LIG         1 TEMP              0 ****  ****    0 ROOT
