@<TRIPOS>MOLECULE
94T
   46    47     1     0     0
SMALL
bcc


@<TRIPOS>ATOM
      1 C          -4.7830    1.6740    0.8180 c         1 LIG      0.807500
      2 C1         -4.9060    3.1840   -0.9610 c         1 LIG      0.719700
      3 C2         -4.0490    2.3480   -1.7160 cc        1 LIG     -0.354200
      4 C3         -3.5940    1.2030   -1.1630 cd        1 LIG      0.080600
      5 N          -3.9680    0.8710    0.1110 n         1 LIG     -0.372000
      6 O          -5.0980    1.3620    1.9500 o         1 LIG     -0.663500
      7 N1         -5.2510    2.8210    0.2910 n         1 LIG     -0.595500
      8 O1         -5.3290    4.2220   -1.4390 o         1 LIG     -0.658500
      9 C4         -3.4750   -0.3710    0.7110 c3        1 LIG      0.261500
     10 O2         -2.0450   -0.4840    0.5450 os        1 LIG     -0.426600
     11 C5         -4.0250   -1.6030   -0.0530 c3        1 LIG      0.107100
     12 O3         -5.3070   -1.9840    0.4510 oh        1 LIG     -0.601800
     13 C6         -2.9630   -2.6830    0.2650 c3        1 LIG      0.121100
     14 O4         -3.4010   -3.5140    1.3410 oh        1 LIG     -0.652800
     15 C7         -1.7150   -1.8770    0.6750 c3        1 LIG      0.054100
     16 C8         -0.5450   -2.2230   -0.2470 c3        1 LIG      0.215400
     17 O5          0.6320   -1.5480    0.2020 os        1 LIG     -0.569200
     18 P           2.0560   -1.6830   -0.5360 p5        1 LIG      1.624800
     19 O6          2.5820   -3.2000   -0.4140 o         1 LIG     -0.898000
     20 O7          1.9070   -1.3260   -1.9650 o         1 LIG     -0.898000
     21 O8          3.1160   -0.6900    0.1570 os        1 LIG     -0.814800
     22 P1          4.5170   -0.0470   -0.3080 p5        1 LIG      1.592800
     23 O9          5.6690   -1.1710   -0.2500 o         1 LIG     -0.866500
     24 O10         4.3920    0.4590   -1.6930 o         1 LIG     -0.866500
     25 O11         4.9040    1.1680    0.6750 os        1 LIG     -0.586200
     26 C9          6.0400    2.0090    0.4640 c3        1 LIG      0.204400
     27 C10         6.1130    3.0560    1.5770 c3        1 LIG     -0.110400
     28 C11         7.3290    3.9560    1.3510 c3        1 LIG     -0.081100
     29 H          -3.7760    2.6100   -2.6760 ha        1 LIG      0.178000
     30 H1         -2.9680    0.5820   -1.6980 h4        1 LIG      0.202000
     31 H2         -5.8470    3.3970    0.8220 hn        1 LIG      0.334500
     32 H3         -3.7770   -0.3460    1.7370 h2        1 LIG      0.116700
     33 H4         -4.1680   -1.4340   -1.1000 h1        1 LIG      0.071700
     34 H5         -5.2430   -2.1530    1.4040 ho        1 LIG      0.433000
     35 H6         -2.7770   -3.3340   -0.5640 h1        1 LIG      0.097700
     36 H7         -3.5830   -2.9650    2.1200 ho        1 LIG      0.503000
     37 H8         -1.4280   -2.1070    1.6800 h1        1 LIG      0.096700
     38 H9         -0.7740   -1.9140   -1.2450 h1        1 LIG      0.013700
     39 H10        -0.3780   -3.2800   -0.2300 h1        1 LIG      0.013700
     40 H11         5.9490    2.5000   -0.4820 h1        1 LIG      0.023700
     41 H12         6.9300    1.4150    0.4740 h1        1 LIG      0.023700
     42 H13         6.2040    2.5650    2.5230 hc        1 LIG      0.038200
     43 H14         5.2230    3.6500    1.5670 hc        1 LIG      0.038200
     44 H15         8.2190    3.3620    1.3610 hc        1 LIG      0.014033
     45 H16         7.3800    4.6880    2.1290 hc        1 LIG      0.014033
     46 H17         7.2380    4.4470    0.4050 hc        1 LIG      0.014033
@<TRIPOS>BOND
     1    1    5 1   
     2    1    7 1   
     3    2    3 1   
     4    2    8 2   
     5    4    3 2   
     6    5    4 1   
     7    6    1 2   
     8    7    2 1   
     9    9    5 1   
    10    9   11 1   
    11   10    9 1   
    12   11   12 1   
    13   13   11 1   
    14   14   13 1   
    15   15   10 1   
    16   15   16 1   
    17   15   13 1   
    18   17   18 1   
    19   17   16 1   
    20   18   19 1   
    21   18   21 1   
    22   20   18 1   
    23   21   22 1   
    24   22   23 1   
    25   24   22 1   
    26   25   22 1   
    27   26   25 1   
    28   27   26 1   
    29   28   27 1   
    30    3   29 1   
    31    4   30 1   
    32    7   31 1   
    33    9   32 1   
    34   11   33 1   
    35   12   34 1   
    36   13   35 1   
    37   14   36 1   
    38   15   37 1   
    39   16   38 1   
    40   16   39 1   
    41   26   40 1   
    42   26   41 1   
    43   27   42 1   
    44   27   43 1   
    45   28   44 1   
    46   28   45 1   
    47   28   46 1   
@<TRIPOS>SUBSTRUCTURE
     1 LIG         1 TEMP              0 ****  ****    0 ROOT
