@<TRIPOS>MOLECULE
F6R
   27    26     1     0     0
SMALL
bcc


@<TRIPOS>ATOM
      1 C           4.3620    1.0440   -0.7860 C.3       1 LIG      0.010400
      2 C1          3.8170   -0.0950    0.0370 C.        1 LIG      0.553100
      3 C2          2.5340   -0.7730   -0.3700 C.3       1 LIG     -0.029900
      4 C3          1.3490    0.1320   -0.0270 C.3       1 LIG      0.310100
      5 C4          0.0410   -0.6050   -0.3240 C.3       1 LIG      0.063100
      6 C5         -1.1440    0.2990    0.0190 C.3       1 LIG      0.165400
      7 O           5.5770    1.5150   -0.2010 O.h       1 LIG     -0.640800
      8 O1          4.4090   -0.4650    1.0230 O.3       1 LIG     -0.616100
      9 O2          2.4060   -2.0110    0.3320 O.h       1 LIG     -0.642800
     10 O3          1.3970    0.4750    1.3600 O.h       1 LIG     -0.965800
     11 O4         -0.0070   -0.9490   -1.7100 O.h       1 LIG     -0.653800
     12 O5         -2.3620   -0.4280   -0.1480 O.2       1 LIG     -0.606200
     13 P          -3.8120    0.2150    0.1270 P.5       1 LIG      1.347900
     14 O6         -4.0850    1.3960   -0.9330 O.3       1 LIG     -0.732167
     15 O7         -4.9420   -0.9210   -0.0340 O.3       1 LIG     -0.732167
     16 O8         -3.8560    0.7640    1.5000 O.3       1 LIG     -0.732167
     17 H           3.6470    1.8390   -0.8120 H         1 LIG      0.077700
     18 H1          4.5540    0.7040   -1.7820 H         1 LIG      0.077700
     19 H2          2.5480   -0.9600   -1.4230 H         1 LIG      0.054700
     20 H3          1.3990    1.0230   -0.6170 H         1 LIG     -0.077300
     21 H4         -0.0090   -1.4960    0.2670 H         1 LIG      0.022700
     22 H5         -1.1440    1.1490   -0.6310 H         1 LIG      0.035200
     23 H6         -1.0600    0.6260    1.0340 H         1 LIG      0.035200
     24 H7          5.4030    1.8230    0.7020 H         1 LIG      0.407000
     25 H8          2.3940   -1.8410    1.2870 H         1 LIG      0.437000
     26 H9          1.3520   -0.3330    1.8950 H         1 LIG      0.425000
     27 H10         0.0380   -0.1410   -2.2450 H         1 LIG      0.408000
@<TRIPOS>BOND
     1    1    2 1   
     2    1    7 1   
     3    2    3 1   
     4    2    8 2   
     5    3    4 1   
     6    3    9 1   
     7    4    5 1   
     8    4   10 1   
     9    5    6 1   
    10    5   11 1   
    11    6   12 1   
    12   12   13 1   
    13   13   14 1   
    14   13   15 1   
    15   13   16 1   
    16    1   17 1   
    17    1   18 1   
    18    3   19 1   
    19    4   20 1   
    20    5   21 1   
    21    6   22 1   
    22    6   23 1   
    23    7   24 1   
    24    9   25 1   
    25   10   26 1   
    26   11   27 1   
@<TRIPOS>SUBSTRUCTURE
     1 LIG         1 TEMP              0 ****  ****    0 ROOT
