@<TRIPOS>MOLECULE
653
   50    53     1     0     0
SMALL
bcc


@<TRIPOS>ATOM
      1 C           5.3370    0.3610    0.0730 C.a       1 LIG     -0.297900
      2 C1          5.0720    1.5470   -0.6230 C.a       1 LIG     -0.098000
      3 C2          3.7940    1.8720   -0.9760 C.a       1 LIG     -0.127000
      4 C3          2.7420    1.0260   -0.6470 C.a       1 LIG      0.025000
      5 C4          2.9900   -0.1710    0.0520 C.a       1 LIG     -0.047000
      6 C5          4.2980   -0.5020    0.4060 C.a       1 LIG     -0.057000
      7 C6          6.7260    0.0220    0.4500 C.e       1 LIG      0.531400
      8 N           6.9800   -1.1060    1.1110 N.h       1 LIG     -0.488600
      9 N1          7.7230    0.8450    0.1270 N.h       1 LIG     -0.472700
     10 N2          1.3800    1.0730   -0.8570 N.a       1 LIG     -0.232600
     11 N3          1.7940   -0.7850    0.2320 N.c       1 LIG     -0.360600
     12 C7          0.8430   -0.0580   -0.3010 C.c       1 LIG      0.297500
     13 C8         -0.5940   -0.4050   -0.3010 C.d       1 LIG     -0.293000
     14 C9         -0.9950   -1.7260   -0.5100 C.d       1 LIG      0.041000
     15 C10        -2.3360   -2.0510   -0.5100 C.c       1 LIG     -0.314200
     16 C11        -2.7600   -3.4790   -0.7370 C.3       1 LIG     -0.001200
     17 C12        -2.8450   -4.2050    0.6070 C.3       1 LIG      0.086800
     18 N4         -3.2590   -5.5970    0.3860 N.4       1 LIG     -0.841600
     19 C13        -3.2930   -1.0750   -0.3030 C.c       1 LIG     -0.048000
     20 C14        -2.9110    0.2480   -0.0920 C.d       1 LIG     -0.145200
     21 C15        -1.5560    0.5880   -0.0860 C.        1 LIG      0.559100
     22 O          -1.1750    1.8740    0.1190 O.3       1 LIG     -0.679100
     23 C16        -3.9400    1.2930    0.1300 C.a       1 LIG     -0.027800
     24 C17        -3.8310    2.1640    1.2120 C.a       1 LIG     -0.119000
     25 C18        -4.7910    3.1340    1.4140 C.a       1 LIG     -0.136500
     26 C19        -5.8620    3.2420    0.5440 C.a       1 LIG     -0.132000
     27 C20        -5.9760    2.3800   -0.5310 C.a       1 LIG     -0.136500
     28 C21        -5.0180    1.4100   -0.7470 C.a       1 LIG     -0.119000
     29 H           5.8480    2.1800   -0.8710 H         1 LIG      0.131000
     30 H1          3.6090    2.7480   -1.4890 H         1 LIG      0.161000
     31 H2          4.4930   -1.3810    0.9110 H         1 LIG      0.144000
     32 H3          6.2430   -1.7140    1.3490 H         1 LIG      0.317950
     33 H4          7.9050   -1.3320    1.3610 H         1 LIG      0.317950
     34 H5          7.5350    1.6790   -0.3620 H         1 LIG      0.317950
     35 H6          8.6480    0.6190    0.3770 H         1 LIG      0.317950
     36 H7          0.8850    1.7870   -1.3210 H         1 LIG      0.360700
     37 H8         -0.2870   -2.4610   -0.6650 H         1 LIG      0.124000
     38 H9         -2.0430   -3.9690   -1.3620 H         1 LIG      0.049700
     39 H10        -3.7180   -3.4950   -1.2130 H         1 LIG      0.049700
     40 H11        -3.5610   -3.7150    1.2320 H         1 LIG      0.112700
     41 H12        -1.8870   -4.1890    1.0820 H         1 LIG      0.112700
     42 H13        -4.1730   -5.6120   -0.0670 H         1 LIG      0.449800
     43 H14        -3.3160   -6.0810    1.2820 H         1 LIG      0.449800
     44 H15        -2.5760   -6.0640   -0.2100 H         1 LIG      0.449800
     45 H16        -4.2940   -1.3270   -0.3050 H         1 LIG      0.104000
     46 H17        -3.0330    2.0840    1.8620 H         1 LIG      0.137000
     47 H18        -4.7100    3.7800    2.2150 H         1 LIG      0.128000
     48 H19        -6.5780    3.9690    0.6980 H         1 LIG      0.129000
     49 H20        -6.7790    2.4620   -1.1730 H         1 LIG      0.128000
     50 H21        -5.0990    0.7730   -1.5550 H         1 LIG      0.137000
@<TRIPOS>BOND
     1    1    2 ar  
     2    1    6 ar  
     3    1    7 1   
     4    2    3 ar  
     5    3    4 ar  
     6    4    5 ar  
     7    4   10 2   
     8    5    6 ar  
     9    5   11 2   
    10    7    8 2   
    11    7    9 1   
    12   10   12 1   
    13   11   12 1   
    14   12   13 2   
    15   13   14 ar  
    16   13   21 ar  
    17   14   15 ar  
    18   15   16 1   
    19   15   19 ar  
    20   16   17 1   
    21   17   18 1   
    22   19   20 ar  
    23   20   21 ar  
    24   20   23 1   
    25   21   22 2   
    26   23   24 ar  
    27   23   28 ar  
    28   24   25 ar  
    29   25   26 ar  
    30   26   27 ar  
    31   27   28 ar  
    32    2   29 1   
    33    3   30 1   
    34    6   31 1   
    35    8   32 1   
    36    8   33 1   
    37    9   34 1   
    38    9   35 1   
    39   10   36 1   
    40   14   37 1   
    41   16   38 1   
    42   16   39 1   
    43   17   40 1   
    44   17   41 1   
    45   18   42 1   
    46   18   43 1   
    47   18   44 1   
    48   19   45 1   
    49   24   46 1   
    50   25   47 1   
    51   26   48 1   
    52   27   49 1   
    53   28   50 1   
@<TRIPOS>SUBSTRUCTURE
     1 LIG         1 TEMP              0 ****  ****    0 ROOT
