@<TRIPOS>MOLECULE
2TN
   42    42     1     0     0
SMALL
bcc


@<TRIPOS>ATOM
      1 O           4.0250    1.2870    8.1640 o         1 LIG     -0.721100
      2 C           3.2550    1.0750    9.0970 c         1 LIG      0.685100
      3 N           3.5140    1.4470   10.3990 n         1 LIG     -0.641000
      4 C1          1.9140    0.3780    8.9410 c3        1 LIG     -0.112100
      5 C2          1.6400   -0.0980    7.5540 ca        1 LIG     -0.092300
      6 C3          0.9910    0.7390    6.6460 ca        1 LIG     -0.094000
      7 C4          0.7340    0.2940    5.3490 ca        1 LIG     -0.180500
      8 C5          1.1280   -0.9850    4.9680 ca        1 LIG      0.074100
      9 C6          1.7750   -1.8240    5.8690 ca        1 LIG     -0.180500
     10 C7          2.0320   -1.3790    7.1660 ca        1 LIG     -0.094000
     11 O1          0.8740   -1.4220    3.6950 os        1 LIG     -0.318900
     12 C8          0.8420   -0.4310    2.6730 c3        1 LIG      0.074400
     13 C9          1.3100   -1.0580    1.3630 c3        1 LIG      0.105100
     14 O2          0.4200   -2.1220    1.0250 oh        1 LIG     -0.561800
     15 C10         2.7430   -1.5880    1.4260 c3        1 LIG      0.053800
     16 N1          3.6790   -0.5320    1.7370 n4        1 LIG     -0.766000
     17 C11         5.0510   -1.0320    1.7760 c3        1 LIG      0.139500
     18 C12         5.1530   -2.1290    2.8260 c3        1 LIG     -0.131600
     19 C13         5.9900    0.1270    2.0800 c3        1 LIG     -0.131600
     20 H           4.3550    1.9070   10.6210 hn        1 LIG      0.329000
     21 H1          2.8580    1.2520   11.1070 hn        1 LIG      0.329000
     22 H2          1.1430    1.0650    9.2200 hc        1 LIG      0.092200
     23 H3          1.9380   -0.4880    9.5680 hc        1 LIG      0.092200
     24 H4          0.7010    1.6870    6.9340 ha        1 LIG      0.155500
     25 H5          0.2540    0.9110    4.6750 ha        1 LIG      0.163500
     26 H6          2.0640   -2.7720    5.5790 ha        1 LIG      0.163500
     27 H7          2.5120   -1.9980    7.8380 ha        1 LIG      0.155500
     28 H8          1.4910    0.3780    2.9360 h1        1 LIG      0.087700
     29 H9         -0.1540   -0.0570    2.5610 h1        1 LIG      0.087700
     30 H10         1.3020   -0.2910    0.6170 h1        1 LIG      0.095700
     31 H11         0.4490   -2.8000    1.7180 ho        1 LIG      0.429000
     32 H12         2.9990   -2.0130    0.4780 hx        1 LIG      0.113700
     33 H13         2.7970   -2.3260    2.1990 hx        1 LIG      0.113700
     34 H14         3.4430   -0.1370    2.6470 hn        1 LIG      0.467300
     35 H15         3.6160    0.1780    1.0080 hn        1 LIG      0.467300
     36 H16         5.3300   -1.4510    0.8320 hx        1 LIG      0.092700
     37 H17         4.8780   -1.7340    3.7820 hc        1 LIG      0.076200
     38 H18         6.1590   -2.4920    2.8660 hc        1 LIG      0.076200
     39 H19         4.4940   -2.9320    2.5680 hc        1 LIG      0.076200
     40 H20         5.7270    0.5610    3.0220 hc        1 LIG      0.076200
     41 H21         5.9050    0.8660    1.3110 hc        1 LIG      0.076200
     42 H22         6.9970   -0.2310    2.1210 hc        1 LIG      0.076200
@<TRIPOS>BOND
     1    1    2 2   
     2    2    3 1   
     3    2    4 1   
     4    4    5 1   
     5    5   10 ar  
     6    5    6 ar  
     7    6    7 ar  
     8    7    8 ar  
     9    8    9 ar  
    10    8   11 1   
    11    9   10 ar  
    12   11   12 1   
    13   12   13 1   
    14   13   15 1   
    15   13   14 1   
    16   15   16 1   
    17   16   17 1   
    18   17   18 1   
    19   17   19 1   
    20    3   20 1   
    21    3   21 1   
    22    4   22 1   
    23    4   23 1   
    24    6   24 1   
    25    7   25 1   
    26    9   26 1   
    27   10   27 1   
    28   12   28 1   
    29   12   29 1   
    30   13   30 1   
    31   14   31 1   
    32   15   32 1   
    33   15   33 1   
    34   16   34 1   
    35   16   35 1   
    36   17   36 1   
    37   18   37 1   
    38   18   38 1   
    39   18   39 1   
    40   19   40 1   
    41   19   41 1   
    42   19   42 1   
@<TRIPOS>SUBSTRUCTURE
     1 LIG         1 TEMP              0 ****  ****    0 ROOT
