@<TRIPOS>MOLECULE
0T1
   82    84     1     0     0
SMALL
bcc


@<TRIPOS>ATOM
      1 N          -5.3890    6.1650    1.7280 nb        1 LIG     -0.809000
      2 C          -6.0970    5.1010    2.0600 ca        1 LIG      0.607900
      3 N1         -5.7440    3.8810    1.7130 nb        1 LIG     -0.664000
      4 C1         -4.6410    3.6710    1.0020 ca        1 LIG      0.430800
      5 C2         -3.8530    4.7710    0.6230 ca        1 LIG     -0.192200
      6 C3         -4.2710    6.0530    1.0180 ca        1 LIG      0.643200
      7 N2         -3.5350    7.1740    0.6740 nh        1 LIG     -0.913500
      8 N3         -2.8040    4.2860   -0.0830 nc        1 LIG     -0.624100
      9 C4         -2.8960    2.9900   -0.1610 cd        1 LIG      0.475700
     10 N4         -4.0130    2.5620    0.4930 na        1 LIG     -0.230000
     11 C5         -4.4600    1.1740    0.6280 c3        1 LIG      0.216800
     12 C6         -5.4900    0.8230   -0.4760 c3        1 LIG      0.102100
     13 O          -6.8130    1.1840   -0.0730 oh        1 LIG     -0.660800
     14 C7         -5.3450   -0.7150   -0.5780 c3        1 LIG      0.179100
     15 O1         -6.3640   -1.3660    0.1840 os        1 LIG     -0.556200
     16 P          -7.4180   -2.3960   -0.4630 p5        1 LIG      1.317900
     17 O2         -8.3570   -1.6150   -1.5120 o         1 LIG     -0.921500
     18 O3         -6.6880   -3.4760   -1.1620 o         1 LIG     -0.921500
     19 O4         -8.3300   -3.0320    0.7020 o         1 LIG     -0.921500
     20 C8         -3.9550   -1.0040    0.0230 c3        1 LIG      0.099100
     21 O5         -3.3700    0.2620    0.3740 os        1 LIG     -0.419600
     22 C9         -3.0780   -1.7130   -1.0110 c3        1 LIG      0.171400
     23 O6         -1.8350   -2.0800   -0.4100 os        1 LIG     -0.590200
     24 P1         -0.6670   -2.8470   -1.2090 p5        1 LIG      1.610800
     25 O7         -0.3150   -2.0790   -2.4250 o         1 LIG     -0.874000
     26 O8         -1.1790   -4.3140   -1.6310 o         1 LIG     -0.874000
     27 O9          0.6310   -2.9810   -0.2650 os        1 LIG     -0.798800
     28 P2          2.1940   -3.2460   -0.5440 p5        1 LIG      1.636800
     29 O10         2.4180   -4.7950   -0.9190 o         1 LIG     -0.914000
     30 O11         2.6450   -2.3960   -1.6690 o         1 LIG     -0.914000
     31 O12         3.0430   -2.8850    0.7750 os        1 LIG     -0.564200
     32 C10         4.9520   -2.5200    2.2120 c3        1 LIG     -0.104000
     33 C11         4.4710   -2.9140    0.8140 c3        1 LIG      0.219400
     34 C12         4.4620   -1.1080    2.5400 c3        1 LIG     -0.095100
     35 C13         4.3930   -3.5050    3.2400 c3        1 LIG     -0.095100
     36 C14         6.4810   -2.5510    2.2530 c3        1 LIG      0.090100
     37 O13         6.9340   -3.8950    2.0760 oh        1 LIG     -0.614800
     38 C15         7.0310   -1.6850    1.1500 c         1 LIG      0.624100
     39 O14         7.6110   -2.1930    0.2130 o         1 LIG     -0.689100
     40 N5          6.8790   -0.3470    1.2030 n         1 LIG     -0.541900
     41 C16         7.3270    0.4860    0.0850 c3        1 LIG      0.111000
     42 C17         7.0400    1.9560    0.3980 c3        1 LIG     -0.174400
     43 C18         7.5010    2.8140   -0.7520 c         1 LIG      0.656100
     44 O15         8.0090    2.3000   -1.7260 o         1 LIG     -0.720100
     45 N6          7.3490    4.1520   -0.6980 n         1 LIG     -0.532900
     46 C19         7.7970    4.9860   -1.8170 c3        1 LIG      0.095000
     47 C20         7.5100    6.4560   -1.5040 c3        1 LIG     -0.110400
     48 C21         7.9780    7.3260   -2.6720 c3        1 LIG     -0.080100
     49 H          -6.9590    5.2310    2.6120 h5        1 LIG      0.015100
     50 H1         -3.8380    8.0670    0.9560 hn        1 LIG      0.379800
     51 H2         -2.7090    7.0780    0.1470 hn        1 LIG      0.379800
     52 H3         -2.2230    2.3770   -0.6460 h5        1 LIG      0.179800
     53 H4         -4.8590    1.0840    1.6170 h2        1 LIG      0.089700
     54 H5         -5.3230    1.3350   -1.4010 h1        1 LIG      0.021700
     55 H6         -7.0260    0.7470    0.7670 ho        1 LIG      0.500000
     56 H7         -5.4410   -1.0710   -1.5820 h1        1 LIG      0.085700
     57 H8         -4.0370   -1.6360    0.8820 h1        1 LIG      0.088700
     58 H9         -2.8950   -1.0550   -1.8350 h1        1 LIG      0.026700
     59 H10        -3.5780   -2.5920   -1.3600 h1        1 LIG      0.026700
     60 H11         4.8140   -3.9010    0.5840 h1        1 LIG      0.005700
     61 H12         4.8610   -2.2240    0.0950 h1        1 LIG      0.005700
     62 H13         4.8530   -0.4190    1.8210 hc        1 LIG      0.042200
     63 H14         4.7980   -0.8320    3.5180 hc        1 LIG      0.042200
     64 H15         3.3930   -1.0860    2.5110 hc        1 LIG      0.042200
     65 H16         4.7360   -4.4920    3.0110 hc        1 LIG      0.042200
     66 H17         3.3240   -3.4830    3.2110 hc        1 LIG      0.042200
     67 H18         4.7290   -3.2290    4.2180 hc        1 LIG      0.042200
     68 H19         6.8210   -2.1820    3.1980 h1        1 LIG      0.070700
     69 H20         6.6260   -4.2300    1.2190 ho        1 LIG      0.414000
     70 H21         6.4670    0.0700    1.9940 hn        1 LIG      0.389500
     71 H22         6.8040    0.2020   -0.8040 h1        1 LIG      0.028200
     72 H23         8.3780    0.3510   -0.0620 h1        1 LIG      0.028200
     73 H24         7.5630    2.2400    1.2870 hc        1 LIG      0.092200
     74 H25         5.9890    2.0910    0.5440 hc        1 LIG      0.092200
     75 H26         6.9370    4.5690    0.0930 hn        1 LIG      0.389500
     76 H27         7.2730    4.7020   -2.7060 h1        1 LIG      0.059700
     77 H28         8.8480    4.8510   -1.9640 h1        1 LIG      0.059700
     78 H29         8.0340    6.7400   -0.6150 hc        1 LIG      0.051700
     79 H30         6.4590    6.5910   -1.3570 hc        1 LIG      0.051700
     80 H31         9.0290    7.1910   -2.8190 hc        1 LIG      0.015700
     81 H32         7.7780    8.3540   -2.4540 hc        1 LIG      0.015700
     82 H33         7.4540    7.0420   -3.5610 hc        1 LIG      0.015700
@<TRIPOS>BOND
     1    1    2 ar  
     2    1    6 ar  
     3    2    3 ar  
     4    3    4 ar  
     5    4   10 1   
     6    5    4 ar  
     7    5    8 1   
     8    6    5 ar  
     9    7    6 1   
    10    8    9 2   
    11   10    9 1   
    12   10   11 1   
    13   11   12 1   
    14   11   21 1   
    15   12   14 1   
    16   13   12 1   
    17   14   20 1   
    18   15   16 1   
    19   15   14 1   
    20   16   19 1   
    21   16   17 1   
    22   18   16 1   
    23   20   22 1   
    24   21   20 1   
    25   23   22 1   
    26   23   24 1   
    27   24   26 1   
    28   24   27 1   
    29   25   24 1   
    30   27   28 1   
    31   28   30 1   
    32   28   29 1   
    33   31   28 1   
    34   32   36 1   
    35   33   32 1   
    36   33   31 1   
    37   34   32 1   
    38   35   32 1   
    39   36   38 1   
    40   36   37 1   
    41   38   39 2   
    42   38   40 1   
    43   40   41 1   
    44   41   42 1   
    45   42   43 1   
    46   43   45 1   
    47   44   43 2   
    48   45   46 1   
    49   46   47 1   
    50   47   48 1   
    51    2   49 1   
    52    7   50 1   
    53    7   51 1   
    54    9   52 1   
    55   11   53 1   
    56   12   54 1   
    57   13   55 1   
    58   14   56 1   
    59   20   57 1   
    60   22   58 1   
    61   22   59 1   
    62   33   60 1   
    63   33   61 1   
    64   34   62 1   
    65   34   63 1   
    66   34   64 1   
    67   35   65 1   
    68   35   66 1   
    69   35   67 1   
    70   36   68 1   
    71   37   69 1   
    72   40   70 1   
    73   41   71 1   
    74   41   72 1   
    75   42   73 1   
    76   42   74 1   
    77   45   75 1   
    78   46   76 1   
    79   46   77 1   
    80   47   78 1   
    81   47   79 1   
    82   48   80 1   
    83   48   81 1   
    84   48   82 1   
@<TRIPOS>SUBSTRUCTURE
     1 LIG         1 TEMP              0 ****  ****    0 ROOT
