@<TRIPOS>MOLECULE
BB7
   18    17     1     0     0
SMALL
bcc


@<TRIPOS>ATOM
      1 N           1.7440    1.6170    0.6120 nh        1 LIG     -0.823600
      2 CA          1.0500    0.4800    0.1450 ce        1 LIG      0.111800
      3 C           1.7240   -0.7570    0.0150 c         1 LIG      0.911800
      4 O           1.8300   -1.4960    0.9760 o         1 LIG     -0.809300
      5 C1         -0.2610    0.5730   -0.1790 c2        1 LIG     -0.201600
      6 S          -1.0650    2.1400   -0.1550 sh        1 LIG     -0.394400
      7 C2         -1.0330   -0.6640   -0.5600 c3        1 LIG      0.198600
      8 O1         -2.0390   -0.9190    0.4220 os        1 LIG     -0.445600
      9 C3         -2.8320   -2.0770    0.1540 c3        1 LIG      0.113700
     10 OXT         2.2510   -1.1170   -1.1750 o         1 LIG     -0.809300
     11 H1          2.6970    1.5490    0.8480 hn        1 LIG      0.392300
     12 H2          1.2740    2.4780    0.7020 hn        1 LIG      0.392300
     13 H          -0.1760    3.1000    0.2150 hs        1 LIG      0.157800
     14 H3         -0.3660   -1.4990   -0.6120 h1        1 LIG      0.059200
     15 H4         -1.4950   -0.5160   -1.5140 h1        1 LIG      0.059200
     16 H5         -3.5580   -2.1990    0.9300 h1        1 LIG      0.030033
     17 H6         -2.2010   -2.9400    0.1170 h1        1 LIG      0.030033
     18 H7         -3.3300   -1.9580   -0.7850 h1        1 LIG      0.030033
@<TRIPOS>BOND
     1    1    2 1   
     2    2    3 1   
     3    2    5 2   
     4    3    4 1   
     5    3   10 1   
     6    5    6 1   
     7    5    7 1   
     8    7    8 1   
     9    8    9 1   
    10    1   11 1   
    11    1   12 1   
    12    6   13 1   
    13    7   14 1   
    14    7   15 1   
    15    9   16 1   
    16    9   17 1   
    17    9   18 1   
@<TRIPOS>SUBSTRUCTURE
     1 LIG         1 TEMP              0 ****  ****    0 ROOT
