@<TRIPOS>MOLECULE
4DX
   22    22     1     0     0
SMALL
bcc


@<TRIPOS>ATOM
      1 C           1.8050    1.5200   -0.1310 c3        1 LIG     -0.090100
      2 C1          0.5700    0.7360    0.3180 c3        1 LIG     -0.095700
      3 C2         -0.6930    1.4620   -0.1490 c3        1 LIG     -0.072400
      4 C3         -1.9270    0.6770    0.2990 c3        1 LIG     -0.079400
      5 C4         -1.8900   -0.7250   -0.3120 c3        1 LIG     -0.074400
      6 C5         -0.6270   -1.4510    0.1550 c3        1 LIG     -0.108400
      7 C6          0.6080   -0.6660   -0.2930 c3        1 LIG      0.140100
      8 O           1.7880   -1.3450    0.1430 oh        1 LIG     -0.595800
      9 H           1.7790    2.5010    0.2960 hc        1 LIG      0.038700
     10 H1          1.8110    1.5950   -1.1980 hc        1 LIG      0.038700
     11 H2          2.6880    1.0120    0.1960 hc        1 LIG      0.038700
     12 H3          0.5630    0.6610    1.3850 hc        1 LIG      0.044700
     13 H4         -0.6870    1.5380   -1.2160 hc        1 LIG      0.042700
     14 H5         -0.7200    2.4430    0.2780 hc        1 LIG      0.042700
     15 H6         -2.8110    1.1850   -0.0270 hc        1 LIG      0.040700
     16 H7         -1.9330    0.6010    1.3660 hc        1 LIG      0.040700
     17 H8         -1.8840   -0.6490   -1.3790 hc        1 LIG      0.041700
     18 H9         -2.7530   -1.2740    0.0010 hc        1 LIG      0.041700
     19 H10        -0.6010   -2.4320   -0.2720 hc        1 LIG      0.046200
     20 H11        -0.6330   -1.5270    1.2220 hc        1 LIG      0.046200
     21 H12         0.6150   -0.5900   -1.3600 h1        1 LIG      0.076700
     22 H13         1.7820   -1.4150    1.1110 ho        1 LIG      0.395000
@<TRIPOS>BOND
     1    1    2 1   
     2    2    3 1   
     3    2    7 1   
     4    3    4 1   
     5    4    5 1   
     6    5    6 1   
     7    6    7 1   
     8    7    8 1   
     9    1    9 1   
    10    1   10 1   
    11    1   11 1   
    12    2   12 1   
    13    3   13 1   
    14    3   14 1   
    15    4   15 1   
    16    4   16 1   
    17    5   17 1   
    18    5   18 1   
    19    6   19 1   
    20    6   20 1   
    21    7   21 1   
    22    8   22 1   
@<TRIPOS>SUBSTRUCTURE
     1 LIG         1 TEMP              0 ****  ****    0 ROOT
