@<TRIPOS>MOLECULE
EH9
   43    44     1     0     0
SMALL
bcc


@<TRIPOS>ATOM
      1 C           2.8950   -2.1840   -0.1970 ca        1 LIG      0.764200
      2 C1          2.1260   -1.0900   -0.6280 ca        1 LIG     -0.235200
      3 C2          1.5200   -0.2800    0.3470 ca        1 LIG      0.457800
      4 C3          2.4240   -1.6110    1.9890 ca        1 LIG      0.686900
      5 C4          1.0420    0.4730   -1.6690 cc        1 LIG      0.402700
      6 N           1.6940   -0.5750    1.6310 nb        1 LIG     -0.742000
      7 N1          3.0080   -2.4040    1.1090 nb        1 LIG     -0.798000
      8 N2          0.8440    0.6970   -0.3390 na        1 LIG     -0.255000
      9 N3          1.7950   -0.5760   -1.8360 nd        1 LIG     -0.545100
     10 C5          0.0540    1.7810    0.2490 c3        1 LIG      0.024000
     11 C6         -1.3940    1.6780   -0.2360 c3        1 LIG     -0.093400
     12 N4          3.5160   -3.0170   -1.1110 nh        1 LIG     -0.960500
     13 C7         -2.0220    0.3910    0.3020 c3        1 LIG     -0.082400
     14 C8         -3.4310    0.2320   -0.2730 c3        1 LIG     -0.078400
     15 C9         -4.0590   -1.0560    0.2650 c3        1 LIG     -0.079400
     16 C10        -5.4680   -1.2150   -0.3100 c3        1 LIG     -0.080400
     17 C11        -6.0960   -2.5020    0.2280 c3        1 LIG     -0.093100
     18 C12         0.6400    3.1280   -0.1770 c3        1 LIG      0.126100
     19 O          -0.0890    4.1850    0.4520 oh        1 LIG     -0.592800
     20 C13         2.1090    3.2010    0.2430 c3        1 LIG     -0.135100
     21 H           2.5440   -1.8110    2.9940 h5        1 LIG      0.051100
     22 H1          0.6520    1.0500   -2.4310 h5        1 LIG      0.073800
     23 H2          0.0790    1.7030    1.3160 h1        1 LIG      0.089700
     24 H3         -1.4120    1.6630   -1.3060 hc        1 LIG      0.060700
     25 H4         -1.9500    2.5210    0.1180 hc        1 LIG      0.060700
     26 H5          3.4250   -2.8440   -2.0760 hn        1 LIG      0.449300
     27 H6          4.0490   -3.7830   -0.7960 hn        1 LIG      0.449300
     28 H7         -2.0760    0.4400    1.3690 hc        1 LIG      0.047700
     29 H8         -1.4220   -0.4470    0.0130 hc        1 LIG      0.047700
     30 H9         -3.3770    0.1840   -1.3410 hc        1 LIG      0.040200
     31 H10        -4.0310    1.0690    0.0160 hc        1 LIG      0.040200
     32 H11        -4.1130   -1.0080    1.3330 hc        1 LIG      0.041200
     33 H12        -3.4590   -1.8930   -0.0240 hc        1 LIG      0.041200
     34 H13        -5.4140   -1.2640   -1.3770 hc        1 LIG      0.038700
     35 H14        -6.0680   -0.3780   -0.0210 hc        1 LIG      0.038700
     36 H15        -5.4960   -3.3400   -0.0610 hc        1 LIG      0.033033
     37 H16        -7.0810   -2.6130   -0.1740 hc        1 LIG      0.033033
     38 H17        -6.1500   -2.4530    1.2960 hc        1 LIG      0.033033
     39 H18         0.5680    3.2280   -1.2400 h1        1 LIG      0.077700
     40 H19        -0.0240    4.0940    1.4150 ho        1 LIG      0.403000
     41 H20         2.1820    3.1010    1.3060 hc        1 LIG      0.053033
     42 H21         2.5190    4.1430   -0.0550 hc        1 LIG      0.053033
     43 H22         2.6540    2.4100   -0.2280 hc        1 LIG      0.053033
@<TRIPOS>BOND
     1    1   12 1   
     2    1    2 ar  
     3    2    9 1   
     4    3    2 ar  
     5    3    8 1   
     6    4    7 ar  
     7    4    6 ar  
     8    6    3 ar  
     9    7    1 ar  
    10    8   10 1   
    11    8    5 1   
    12    9    5 2   
    13   11   10 1   
    14   13   11 1   
    15   14   13 1   
    16   15   14 1   
    17   16   15 1   
    18   17   16 1   
    19   18   10 1   
    20   18   19 1   
    21   20   18 1   
    22    4   21 1   
    23    5   22 1   
    24   10   23 1   
    25   11   24 1   
    26   11   25 1   
    27   12   26 1   
    28   12   27 1   
    29   13   28 1   
    30   13   29 1   
    31   14   30 1   
    32   14   31 1   
    33   15   32 1   
    34   15   33 1   
    35   16   34 1   
    36   16   35 1   
    37   17   36 1   
    38   17   37 1   
    39   17   38 1   
    40   18   39 1   
    41   19   40 1   
    42   20   41 1   
    43   20   42 1   
    44   20   43 1   
@<TRIPOS>SUBSTRUCTURE
     1 LIG         1 TEMP              0 ****  ****    0 ROOT
