@<TRIPOS>MOLECULE
1TW
   39    41     1     0     0
SMALL
bcc


@<TRIPOS>ATOM
      1 O          -5.2210   -2.2520    1.6800 o         1 LIG     -0.644500
      2 C          -4.6530   -1.7610    0.7190 c         1 LIG      0.645000
      3 C1         -3.2750   -1.4480    0.7740 cc        1 LIG      0.200800
      4 N          -2.3170   -1.5660    1.7250 nc        1 LIG     -0.629000
      5 C2         -1.1880   -1.1210    1.2570 cd        1 LIG      0.461400
      6 N1         -5.3240   -1.5080   -0.4260 n         1 LIG     -0.496400
      7 C3         -4.6800   -0.9590   -1.4950 cd        1 LIG      0.593800
      8 N2         -5.3860   -0.7130   -2.6450 nh        1 LIG     -0.865800
      9 N3         -3.4010   -0.6580   -1.4550 nc        1 LIG     -0.621100
     10 C4         -2.6700   -0.8860   -0.3570 cd        1 LIG      0.062800
     11 N4         -1.3570   -0.6900   -0.0270 na        1 LIG     -0.172900
     12 C5         -0.3220   -0.1190   -0.8930 c3        1 LIG      0.264800
     13 O1          0.9870   -0.5520   -0.4630 os        1 LIG     -0.432600
     14 C6         -0.2940    1.4190   -0.7560 c3        1 LIG     -0.042600
     15 SE         -1.0330    1.9680    0.9750 ss        1 LIG     -0.351200
     16 C7         -0.7460    3.9060    0.9060 c3        1 LIG     -0.025000
     17 C8          1.2070    1.7760   -0.8410 c3        1 LIG      0.157100
     18 O2          1.4570    2.6190   -1.9680 oh        1 LIG     -0.673800
     19 C9          1.9080    0.4120   -1.0200 c3        1 LIG      0.055100
     20 C10         3.2320    0.3880   -0.2530 c3        1 LIG      0.232400
     21 O3          3.9180   -0.8350   -0.5250 os        1 LIG     -0.555200
     22 P           5.3490   -1.1990    0.1170 p5        1 LIG      1.332900
     23 O4          5.2670   -1.1020    1.5920 o         1 LIG     -0.926500
     24 O5          5.7590   -2.6990   -0.3000 o         1 LIG     -0.926500
     25 O6          6.4590   -0.1680   -0.4280 o         1 LIG     -0.926500
     26 H          -0.2980   -1.0970    1.7780 h5        1 LIG      0.117100
     27 H1         -6.2830   -1.7210   -0.4890 hn        1 LIG      0.322500
     28 H2         -6.3450   -0.9330   -2.6910 hn        1 LIG      0.380300
     29 H3         -4.9340   -0.3170   -3.4250 hn        1 LIG      0.380300
     30 H4         -0.5450   -0.4320   -1.8920 h2        1 LIG      0.076700
     31 H5         -0.8780    1.9110   -1.5060 h1        1 LIG      0.085700
     32 H6         -1.1100    4.3530    1.8080 h1        1 LIG      0.075367
     33 H7         -1.2710    4.3150    0.0680 h1        1 LIG      0.075367
     34 H8          0.3000    4.1080    0.8040 h1        1 LIG      0.075367
     35 H9          1.5540    2.3080    0.0200 h1        1 LIG      0.115700
     36 H10         1.1570    2.1750   -2.7770 ho        1 LIG      0.508000
     37 H11         2.1390    0.2070   -2.0440 h1        1 LIG      0.072700
     38 H12         3.0380    0.4620    0.7970 h1        1 LIG     -0.000300
     39 H13         3.8380    1.2130   -0.5630 h1        1 LIG     -0.000300
@<TRIPOS>BOND
     1    2    1 2   
     2    3    4 ar  
     3    3    2 1   
     4    5    4 ar  
     5    6    2 1   
     6    7    6 1   
     7    8    7 1   
     8    9    7 2   
     9    9   10 1   
    10   10    3 ar  
    11   11   10 ar  
    12   11    5 ar  
    13   12   11 1   
    14   12   13 1   
    15   14   17 1   
    16   14   15 1   
    17   14   12 1   
    18   16   15 1   
    19   17   19 1   
    20   18   17 1   
    21   19   13 1   
    22   19   20 1   
    23   21   20 1   
    24   21   22 1   
    25   22   24 1   
    26   22   25 1   
    27   23   22 1   
    28    5   26 1   
    29    6   27 1   
    30    8   28 1   
    31    8   29 1   
    32   12   30 1   
    33   14   31 1   
    34   16   32 1   
    35   16   33 1   
    36   16   34 1   
    37   17   35 1   
    38   18   36 1   
    39   19   37 1   
    40   20   38 1   
    41   20   39 1   
@<TRIPOS>SUBSTRUCTURE
     1 LIG         1 TEMP              0 ****  ****    0 ROOT
