@<TRIPOS>MOLECULE
GDV
   47    49     1     0     0
SMALL
bcc


@<TRIPOS>ATOM
      1 O           4.8850   -5.5650    0.5210 O.3       1 LIG     -0.628100
      2 C           4.5610   -4.8270    1.4450 C.        1 LIG      0.675100
      3 C1          4.9640   -5.1740    2.8390 C.3       1 LIG     -0.175100
      4 N           3.8320   -3.6550    1.3390 N.        1 LIG     -0.577900
      5 C2          3.3440   -3.1360    0.0850 C.3       1 LIG      0.150000
      6 C3          4.3720   -2.2060   -0.5630 C.3       1 LIG      0.094100
      7 O1          5.3790   -3.0000   -1.1940 O.h       1 LIG     -0.561800
      8 C4          3.7240   -1.3190   -1.6360 C.3       1 LIG      0.096100
      9 O2          4.7410   -0.4490   -2.1390 O.h       1 LIG     -0.560800
     10 C5          2.5550   -0.4730   -1.0830 C.3       1 LIG     -0.031000
     11 C6          1.7760    0.1750   -2.2320 C.3       1 LIG      0.124400
     12 O3          1.2750   -0.8510   -3.0690 O.h       1 LIG     -0.589800
     13 C7          2.0280   -2.4730    0.3040 C.c       1 LIG      0.002100
     14 N1          1.6770   -1.2820   -0.2180 N.a       1 LIG     -0.018100
     15 C8          0.4210   -0.9490    0.2680 C.c       1 LIG     -0.044300
     16 C9         -0.0120   -2.0000    1.0260 C.d       1 LIG     -0.154900
     17 N2          0.9920   -2.9290    1.0200 N.a       1 LIG     -0.099100
     18 C10        -1.2470   -2.1250    1.6960 C.        1 LIG      0.696700
     19 O4         -2.1570   -1.2520    1.6450 O.3       1 LIG     -0.534100
     20 N3         -1.4600   -3.3290    2.4250 N.        1 LIG     -0.442100
     21 C11        -2.5910   -3.7610    3.1620 C.a       1 LIG      0.021600
     22 C12        -3.7040   -2.9410    3.2320 C.a       1 LIG     -0.145500
     23 C13        -4.8170   -3.3660    3.9570 C.a       1 LIG     -0.103000
     24 C14        -4.8000   -4.6040    4.6000 C.a       1 LIG     -0.125000
     25 C15        -3.6690   -5.4160    4.5190 C.a       1 LIG     -0.103000
     26 C16        -2.5550   -4.9910    3.7940 C.a       1 LIG     -0.145500
     27 H           5.5200   -6.0880    2.8320 H         1 LIG      0.090367
     28 H1          4.0900   -5.2930    3.4440 H         1 LIG      0.090367
     29 H2          5.5710   -4.3900    3.2400 H         1 LIG      0.090367
     30 H3          3.6370   -3.1500    2.1610 H         1 LIG      0.343500
     31 H4          3.1970   -3.9410   -0.6040 H         1 LIG      0.109700
     32 H5          4.7870   -1.5820    0.2010 H         1 LIG      0.103700
     33 H6          4.9720   -3.5530   -1.8790 H         1 LIG      0.432000
     34 H7          3.3150   -1.9460   -2.4010 H         1 LIG      0.106700
     35 H8          5.0830    0.1000   -1.4160 H         1 LIG      0.431000
     36 H9          2.9590    0.3100   -0.4770 H         1 LIG      0.100700
     37 H10         2.4250    0.8140   -2.7930 H         1 LIG      0.085200
     38 H11         0.9680    0.7590   -1.8440 H         1 LIG      0.085200
     39 H12         2.0140   -1.3750   -3.4160 H         1 LIG      0.427000
     40 H13        -0.0910   -0.0710    0.0900 H         1 LIG      0.243000
     41 H14         0.9580   -3.8020    1.4740 H         1 LIG      0.379700
     42 H15        -0.7040   -3.9600    2.4160 H         1 LIG      0.320500
     43 H16        -3.7100   -2.0270    2.7540 H         1 LIG      0.147500
     44 H17        -5.6530   -2.7640    4.0180 H         1 LIG      0.148000
     45 H18        -5.6240   -4.9190    5.1350 H         1 LIG      0.149000
     46 H19        -3.6560   -6.3310    4.9950 H         1 LIG      0.148000
     47 H20        -1.7150   -5.5870    3.7300 H         1 LIG      0.147500
@<TRIPOS>BOND
     1    1    2 2   
     2    2    3 1   
     3    2    4 1   
     4    4    5 1   
     5    5    6 1   
     6    5   13 1   
     7    6    7 1   
     8    6    8 1   
     9    8    9 1   
    10    8   10 1   
    11   10   11 1   
    12   10   14 1   
    13   11   12 1   
    14   13   14 ar  
    15   13   17 ar  
    16   14   15 ar  
    17   15   16 ar  
    18   16   17 ar  
    19   16   18 1   
    20   18   19 2   
    21   18   20 1   
    22   20   21 1   
    23   21   22 ar  
    24   21   26 ar  
    25   22   23 ar  
    26   23   24 ar  
    27   24   25 ar  
    28   25   26 ar  
    29    3   27 1   
    30    3   28 1   
    31    3   29 1   
    32    4   30 1   
    33    5   31 1   
    34    6   32 1   
    35    7   33 1   
    36    8   34 1   
    37    9   35 1   
    38   10   36 1   
    39   11   37 1   
    40   11   38 1   
    41   12   39 1   
    42   15   40 1   
    43   17   41 1   
    44   20   42 1   
    45   22   43 1   
    46   23   44 1   
    47   24   45 1   
    48   25   46 1   
    49   26   47 1   
@<TRIPOS>SUBSTRUCTURE
     1 LIG         1 TEMP              0 ****  ****    0 ROOT
