@<TRIPOS>MOLECULE
AC2
   27    28     1     0     0
SMALL
bcc


@<TRIPOS>ATOM
      1 C           0.3290    0.3220    5.2010 C.3       1 LIG      0.130400
      2 O          -0.5210   -0.8140    5.3620 O.h       1 LIG     -0.597800
      3 C1          1.0430    0.2370    3.8510 C.3       1 LIG      0.081400
      4 O1          0.0750    0.2140    2.8000 O.2       1 LIG     -0.437600
      5 C2          0.8010    0.1360    1.5720 C.3       1 LIG      0.245100
      6 N          -0.1400    0.1090    0.4500 N.a       1 LIG     -0.238900
      7 C3         -1.5010    0.1510    0.5370 C.c       1 LIG      0.408400
      8 N1         -2.0210    0.1090   -0.6540 N.d       1 LIG     -0.584000
      9 C4         -1.0290    0.0370   -1.5740 C.d       1 LIG      0.177800
     10 C5         -0.9980   -0.0300   -2.9870 C.        1 LIG      0.651000
     11 O2         -2.0310   -0.0310   -3.6350 O.3       1 LIG     -0.594500
     12 N2          0.2040   -0.0870   -3.6000 N.        1 LIG     -0.509400
     13 C6          1.3520   -0.0910   -2.8660 C.d       1 LIG      0.687800
     14 N3          2.5590   -0.1560   -3.5160 N.h       1 LIG     -0.895800
     15 N4          1.3370   -0.0280   -1.5530 N.c       1 LIG     -0.683100
     16 C7          0.1840    0.0360   -0.8770 C.c       1 LIG      0.110800
     17 H           1.0540    0.3390    5.9880 H         1 LIG      0.057200
     18 H1         -0.2590    1.2150    5.2380 H         1 LIG      0.057200
     19 H2          0.0120   -1.6240    5.3280 H         1 LIG      0.410000
     20 H3          1.6310   -0.6560    3.8140 H         1 LIG      0.050700
     21 H4          1.6800    1.0880    3.7300 H         1 LIG      0.050700
     22 H5          1.3920   -0.7560    1.5630 H         1 LIG      0.085700
     23 H6          1.4410    0.9890    1.4810 H         1 LIG      0.085700
     24 H7         -2.0380    0.2080    1.4170 H         1 LIG      0.071100
     25 H8          0.2510   -0.1260   -4.5830 H         1 LIG      0.335500
     26 H9          2.5870   -0.2040   -4.4990 H         1 LIG      0.422800
     27 H10         3.3970   -0.1550   -2.9990 H         1 LIG      0.422800
@<TRIPOS>BOND
     1    1    2 1   
     2    1    3 1   
     3    3    4 1   
     4    4    5 1   
     5    5    6 1   
     6    6    7 ar  
     7    6   16 ar  
     8    7    8 ar  
     9    8    9 ar  
    10    9   10 1   
    11    9   16 ar  
    12   10   11 2   
    13   10   12 1   
    14   12   13 1   
    15   13   14 1   
    16   13   15 2   
    17   15   16 1   
    18    1   17 1   
    19    1   18 1   
    20    2   19 1   
    21    3   20 1   
    22    3   21 1   
    23    5   22 1   
    24    5   23 1   
    25    7   24 1   
    26   12   25 1   
    27   14   26 1   
    28   14   27 1   
@<TRIPOS>SUBSTRUCTURE
     1 LIG         1 TEMP              0 ****  ****    0 ROOT
