@<TRIPOS>MOLECULE
5NI
   17    18     1     0     0
SMALL
bcc


@<TRIPOS>ATOM
      1 C           0.7080   -1.4150    0.0000 C.a       1 LIG     -0.045000
      2 C1         -0.6220   -1.7290    0.0000 C.a       1 LIG     -0.151000
      3 C2         -1.5740   -0.7120    0.0000 C.a       1 LIG     -0.014200
      4 C3         -1.1510    0.6310    0.0010 C.a       1 LIG     -0.237900
      5 C4          0.2170    0.9260    0.0060 C.a       1 LIG      0.017000
      6 C5          1.1270   -0.0910    0.0000 C.a       1 LIG     -0.216200
      7 N          -2.9440   -0.6950   -0.0010 N.a       1 LIG     -0.018100
      8 N1         -3.3840    0.6330   -0.0010 N.c       1 LIG     -0.499100
      9 C6         -2.3640    1.4430    0.0000 C.d       1 LIG      0.366800
     10 N2          2.5740    0.2200    0.0010 N.o       1 LIG      0.318200
     11 O           3.3910   -0.6830    0.0000 O.3       1 LIG     -0.212500
     12 O1          2.9480    1.3790   -0.0040 O.3       1 LIG     -0.212500
     13 H           1.4100   -2.1710    0.0000 H         1 LIG      0.173000
     14 H1         -0.9200   -2.7170    0.0000 H         1 LIG      0.154000
     15 H2          0.5360    1.9070    0.0140 H         1 LIG      0.177000
     16 H3         -3.5250   -1.4900   -0.0020 H         1 LIG      0.333700
     17 H4         -2.4060    2.4740    0.0000 H         1 LIG      0.065800
@<TRIPOS>BOND
     1    1    2 ar  
     2    1    6 ar  
     3    2    3 ar  
     4    3    4 ar  
     5    3    7 1   
     6    4    5 ar  
     7    4    9 1   
     8    5    6 ar  
     9    6   10 1   
    10    7    8 1   
    11    8    9 2   
    12   10   11 1   
    13   10   12 1   
    14    1   13 1   
    15    2   14 1   
    16    5   15 1   
    17    7   16 1   
    18    9   17 1   
@<TRIPOS>SUBSTRUCTURE
     1 LIG         1 TEMP              0 ****  ****    0 ROOT
