@<TRIPOS>MOLECULE
164
   27    27     1     0     0
SMALL
bcc


@<TRIPOS>ATOM
      1 O           2.1510    0.5540    2.5850 o         1 LIG     -0.830800
      2 C           1.6240    0.5030    1.4990 c         1 LIG      0.931600
      3 O1          2.0550    1.2950    0.5050 o         1 LIG     -0.830800
      4 C1          0.4810   -0.4500    1.2610 c3        1 LIG     -0.195500
      5 C2          0.2030   -1.2350    2.5420 c3        1 LIG      0.183300
      6 C3         -0.3970   -0.3270    3.5810 c2        1 LIG     -0.185200
      7 C4         -1.2270    0.6550    3.2220 ce        1 LIG     -0.121000
      8 C5         -1.5520    0.8520    1.8110 ce        1 LIG     -0.173000
      9 O2         -0.7080   -2.2980    2.2580 oh        1 LIG     -0.633800
     10 C6         -0.7400    0.3260    0.8570 cf        1 LIG     -0.093400
     11 C7         -1.0440    0.5060   -0.5050 c         1 LIG      0.591300
     12 O3         -2.0330    1.1330   -0.8290 o         1 LIG     -0.573100
     13 C8         -0.1430   -0.0780   -1.5610 c3        1 LIG     -0.165400
     14 C9         -0.6960    0.2590   -2.9470 c3        1 LIG     -0.178400
     15 C10         0.2050   -0.3250   -4.0040 c         1 LIG      0.904600
     16 O4         -0.0840   -0.1530   -5.3030 o         1 LIG     -0.865800
     17 O5          1.1880   -0.9480   -3.6820 o         1 LIG     -0.865800
     18 H           0.7350   -1.1340    0.4780 hc        1 LIG      0.076700
     19 H1          1.1220   -1.6360    2.9150 h1        1 LIG      0.102700
     20 H2         -0.1660   -0.4640    4.5770 ha        1 LIG      0.098000
     21 H3         -1.6380    1.2730    3.9390 ha        1 LIG      0.092000
     22 H4         -2.3920    1.3870    1.5410 ha        1 LIG      0.117000
     23 H5         -1.5390   -1.9300    1.9200 ho        1 LIG      0.396000
     24 H6         -0.0980   -1.1410   -1.4440 hc        1 LIG      0.079200
     25 H7          0.8390    0.3340   -1.4590 hc        1 LIG      0.079200
     26 H8         -0.7410    1.3220   -3.0640 hc        1 LIG      0.029200
     27 H9         -1.6780   -0.1530   -3.0490 hc        1 LIG      0.029200
@<TRIPOS>BOND
     1    1    2 1   
     2    2    3 1   
     3    2    4 1   
     4    4    5 1   
     5    4   10 1   
     6    5    6 1   
     7    5    9 1   
     8    6    7 2   
     9    7    8 1   
    10    8   10 2   
    11   10   11 1   
    12   11   12 2   
    13   11   13 1   
    14   13   14 1   
    15   14   15 1   
    16   15   16 1   
    17   15   17 1   
    18    4   18 1   
    19    5   19 1   
    20    6   20 1   
    21    7   21 1   
    22    8   22 1   
    23    9   23 1   
    24   13   24 1   
    25   13   25 1   
    26   14   26 1   
    27   14   27 1   
@<TRIPOS>SUBSTRUCTURE
     1 LIG         1 TEMP              0 ****  ****    0 ROOT
