@<TRIPOS>MOLECULE
FUX
   15    15     1     0     0
SMALL
bcc


@<TRIPOS>ATOM
      1 C           0.8540   -2.1570   -4.0490 c         1 LIG      0.495400
      2 C1          0.5100   -1.7520   -2.7290 cc        1 LIG      0.137200
      3 O           0.0250   -2.6960   -1.8800 os        1 LIG     -0.362800
      4 C2         -0.2230   -2.0680   -0.7010 cc        1 LIG      0.244000
      5 C3          0.0970   -0.7330   -0.7880 cd        1 LIG     -0.268300
      6 C4          0.5730   -0.5280   -2.1050 cd        1 LIG     -0.162300
      7 C5         -0.7610   -2.9050    0.3810 c3        1 LIG      0.096100
      8 O1         -2.1900   -2.9140    0.3350 oh        1 LIG     -0.582800
      9 O2          1.3090   -1.3890   -4.9260 o         1 LIG     -0.515100
     10 H           0.7190   -3.1490   -4.3000 h4        1 LIG      0.020200
     11 H1          0.0080   -0.0240   -0.0430 ha        1 LIG      0.170000
     12 H2          0.9010    0.3610   -2.5140 ha        1 LIG      0.178000
     13 H3         -0.4400   -2.5130    1.3240 h1        1 LIG      0.069200
     14 H4         -0.4020   -3.9050    0.2600 h1        1 LIG      0.069200
     15 H5         -2.5230   -2.0090    0.4440 ho        1 LIG      0.413000
@<TRIPOS>BOND
     1    1    2 1   
     2    1    9 2   
     3    2    3 ar  
     4    2    6 ar  
     5    3    4 ar  
     6    4    5 ar  
     7    4    7 1   
     8    5    6 ar  
     9    7    8 1   
    10    1   10 1   
    11    5   11 1   
    12    6   12 1   
    13    7   13 1   
    14    7   14 1   
    15    8   15 1   
@<TRIPOS>SUBSTRUCTURE
     1 LIG         1 TEMP              0 ****  ****    0 ROOT
