@<TRIPOS>MOLECULE
QI9
   49    52     1     0     0
SMALL
bcc


@<TRIPOS>ATOM
      1 O           1.0980   -1.7110    1.8180 oh        1 LIG     -0.617800
      2 C           0.3210   -0.6830    1.1990 c3        1 LIG      0.185400
      3 C1          1.2290    0.1870    0.3270 c3        1 LIG      0.135500
      4 N           2.1480    0.9490    1.1840 n4        1 LIG     -0.683400
      5 C2          2.9540    0.0510    2.0220 c3        1 LIG      0.113800
      6 C3          3.8120   -0.8460    1.1250 c3        1 LIG     -0.096400
      7 C4          3.0060    1.8330    0.3830 c3        1 LIG      0.114800
      8 C5          3.8650    0.9880   -0.5610 c3        1 LIG     -0.036500
      9 C6          3.5670    1.3660   -1.9890 c2        1 LIG     -0.220200
     10 C7          4.5220    1.8280   -2.7570 c2        1 LIG     -0.152000
     11 C8          3.5320   -0.4940   -0.3420 c3        1 LIG     -0.069700
     12 C9          2.0380   -0.7050   -0.6180 c3        1 LIG     -0.086400
     13 C10        -0.7480   -1.3090    0.3410 ca        1 LIG     -0.128300
     14 C11        -0.5910   -2.5650   -0.1720 ca        1 LIG     -0.207300
     15 C12        -1.5930   -3.1240   -0.9620 ca        1 LIG      0.398200
     16 N1         -2.7000   -2.4760   -1.2330 nb        1 LIG     -0.610000
     17 C13        -2.9170   -1.2440   -0.7620 ca        1 LIG      0.362600
     18 C14        -1.9400   -0.6180    0.0520 ca        1 LIG     -0.095300
     19 C15        -2.1750    0.6730    0.5500 ca        1 LIG     -0.209000
     20 C16        -4.1070   -0.5550   -1.0570 ca        1 LIG     -0.106300
     21 C17        -4.3030    0.6970   -0.5650 ca        1 LIG     -0.180000
     22 C18        -3.3440    1.3100    0.2470 ca        1 LIG      0.164100
     23 O1         -3.5720    2.5600    0.7280 os        1 LIG     -0.331900
     24 C19        -4.8130    3.1750    0.3770 c3        1 LIG      0.109700
     25 H           0.5230   -2.2630    2.3710 ho        1 LIG      0.443000
     26 H1         -0.1360   -0.0780    1.9540 h1        1 LIG      0.061700
     27 H2          0.6300    0.8640   -0.2460 hx        1 LIG      0.110700
     28 H3          1.5860    1.5340    1.8020 hn        1 LIG      0.448800
     29 H4          2.3070   -0.5560    2.6200 hx        1 LIG      0.107700
     30 H5          3.5880    0.6300    2.6600 hx        1 LIG      0.107700
     31 H6          3.5650   -1.8720    1.3020 hc        1 LIG      0.085200
     32 H7          4.8480   -0.6930    1.3430 hc        1 LIG      0.085200
     33 H8          3.6400    2.3990    1.0320 hx        1 LIG      0.099700
     34 H9          2.3960    2.5010   -0.1890 hx        1 LIG      0.099700
     35 H10         4.9020    1.1610   -0.3610 hc        1 LIG      0.086700
     36 H11         2.6100    1.2610   -2.3620 ha        1 LIG      0.127000
     37 H12         5.4790    1.9330   -2.3840 ha        1 LIG      0.132500
     38 H13         4.3180    2.0870   -3.7350 ha        1 LIG      0.132500
     39 H14         4.1210   -1.1080   -0.9910 hc        1 LIG      0.109700
     40 H15         1.8200   -0.4450   -1.6330 hc        1 LIG      0.092200
     41 H16         1.7810   -1.7310   -0.4570 hc        1 LIG      0.092200
     42 H17         0.2690   -3.1000    0.0250 ha        1 LIG      0.153000
     43 H18        -1.4600   -4.0730   -1.3440 h4        1 LIG      0.043100
     44 H19        -1.4690    1.1380    1.1410 ha        1 LIG      0.124000
     45 H20        -4.8300   -0.9990   -1.6450 ha        1 LIG      0.171000
     46 H21        -5.1730    1.2030   -0.7940 ha        1 LIG      0.159000
     47 H22        -4.8650    4.1490    0.8170 h1        1 LIG      0.057367
     48 H23        -5.6230    2.5760    0.7390 h1        1 LIG      0.057367
     49 H24        -4.8800    3.2600   -0.6880 h1        1 LIG      0.057367
@<TRIPOS>BOND
     1    2    1 1   
     2    2   13 1   
     3    3    2 1   
     4    3   12 1   
     5    4    5 1   
     6    4    3 1   
     7    5    6 1   
     8    6   11 1   
     9    7    4 1   
    10    7    8 1   
    11    8    9 1   
    12    8   11 1   
    13   10    9 2   
    14   11   12 1   
    15   13   14 ar  
    16   14   15 ar  
    17   16   15 ar  
    18   17   16 ar  
    19   18   13 ar  
    20   18   17 ar  
    21   19   18 ar  
    22   20   17 ar  
    23   21   20 ar  
    24   22   19 ar  
    25   22   21 ar  
    26   23   24 1   
    27   23   22 1   
    28    1   25 1   
    29    2   26 1   
    30    3   27 1   
    31    4   28 1   
    32    5   29 1   
    33    5   30 1   
    34    6   31 1   
    35    6   32 1   
    36    7   33 1   
    37    7   34 1   
    38    8   35 1   
    39    9   36 1   
    40   10   37 1   
    41   10   38 1   
    42   11   39 1   
    43   12   40 1   
    44   12   41 1   
    45   14   42 1   
    46   15   43 1   
    47   19   44 1   
    48   20   45 1   
    49   21   46 1   
    50   24   47 1   
    51   24   48 1   
    52   24   49 1   
@<TRIPOS>SUBSTRUCTURE
     1 LIG         1 TEMP              0 ****  ****    0 ROOT
