@<TRIPOS>MOLECULE
CTN
   30    31     1     0     0
SMALL
bcc


@<TRIPOS>ATOM
      1 O5*        -3.3690    2.6030   -0.7380 O.h       1 C1      -0.596800
      2 C5*        -3.2510    1.5610    0.2320 C.3       1 C1       0.112400
      3 C4*        -2.4600    0.3950   -0.3650 C.3       1 C1       0.070100
      4 O4*        -1.0930    0.7890   -0.6120 O.2       1 C1      -0.432600
      5 C1*        -0.3480   -0.4460   -0.6870 C.3       1 C1       0.302500
      6 N1          1.0750   -0.1990   -0.4460 N.        1 C1      -0.395000
      7 C6          2.0030   -0.6590   -1.3330 C.c       1 C1       0.073600
      8 C5          3.3150   -0.4190   -1.1020 C.d       1 C1      -0.422600
      9 C4          3.6860    0.2920    0.0580 C.d       1 C1       0.760500
     10 N3          2.7480    0.7200    0.8930 N.c       1 C1      -0.725100
     11 C2          1.4610    0.4810    0.6490 C.        1 C1       0.841900
     12 O2          0.6170    0.8860    1.4320 O.3       1 C1      -0.640500
     13 N4          5.0130    0.5450    0.3200 N.h       1 C1      -0.919800
     14 C2*        -0.9370   -1.3340    0.4320 C.3       1 C1       0.089100
     15 O2*        -1.0020   -2.6990    0.0140 O.h       1 C1      -0.607800
     16 C3*        -2.3590   -0.7650    0.6500 C.3       1 C1       0.097100
     17 O3*        -3.3450   -1.7610    0.3720 O.h       1 C1      -0.589800
     18 H5*        -3.8700    3.3420   -0.3590 H         1 C1       0.408000
     19 H5*1       -4.2270    1.2230    0.5130 H         1 C1       0.069700
     20 H5*2       -2.7400    1.9340    1.0950 H         1 C1       0.069700
     21 H4*        -2.9670    0.1040   -1.2620 H         1 C1       0.083700
     22 H1*        -0.4250   -0.9060   -1.6500 H         1 C1       0.098700
     23 H6          1.7080   -1.1840   -2.1710 H         1 C1       0.160000
     24 H5          4.0330   -0.7510   -1.7650 H         1 C1       0.156000
     25 H41         5.7070    0.2260   -0.3010 H         1 C1       0.441300
     26 H42         5.2690    1.0450    1.1290 H         1 C1       0.441300
     27 H2*        -0.3440   -1.3210    1.3220 H         1 C1       0.097700
     28 H7         -1.5330   -2.7640   -0.7950 H         1 C1       0.425000
     29 H3*        -2.5250   -0.4460    1.6580 H         1 C1       0.118700
     30 H8         -3.2330   -2.0820   -0.5360 H         1 C1       0.412000
@<TRIPOS>BOND
     1    1    2 1   
     2    2    3 1   
     3    3    4 1   
     4    3   16 1   
     5    4    5 1   
     6    5    6 1   
     7    5   14 1   
     8    6    7 1   
     9    6   11 1   
    10    7    8 2   
    11    8    9 1   
    12    9   10 2   
    13    9   13 1   
    14   10   11 1   
    15   11   12 2   
    16   14   15 1   
    17   14   16 1   
    18   16   17 1   
    19    1   18 1   
    20    2   19 1   
    21    2   20 1   
    22    3   21 1   
    23    5   22 1   
    24    7   23 1   
    25    8   24 1   
    26   13   25 1   
    27   13   26 1   
    28   14   27 1   
    29   15   28 1   
    30   16   29 1   
    31   17   30 1   
@<TRIPOS>SUBSTRUCTURE
     1 C1          1 TEMP              0 ****  ****    0 ROOT
