@<TRIPOS>MOLECULE
B7C
   37    39     1     0     0
SMALL
bcc


@<TRIPOS>ATOM
      1 O           5.9640    0.2890    0.0410 O.3       1 LIG     -0.925500
      2 P           4.6500    1.2130    0.1350 P.5       1 LIG      1.344900
      3 O1          4.8670    2.3430    1.2610 O.3       1 LIG     -0.925500
      4 O2          4.4090    1.8620   -1.1740 O.3       1 LIG     -0.925500
      5 O3          3.3800    0.3030    0.5250 O.2       1 LIG     -0.569200
      6 N          -1.8120   -0.5070    0.2570 N.        1 LIG     -0.373000
      7 C          -2.8680   -0.4760    1.1200 C.c       1 LIG      0.105600
      8 C1         -1.8460    0.1510   -0.9130 C.        1 LIG      0.827900
      9 O4         -0.8700    0.1030   -1.6440 O.3       1 LIG     -0.693500
     10 N1         -2.9100    0.8550   -1.3060 N.c       1 LIG     -0.783100
     11 C2         -3.9720    0.9280   -0.5330 C.d       1 LIG      0.759500
     12 N2         -5.1180    1.6200   -0.8640 N.h       1 LIG     -0.840200
     13 C3         -3.9700    0.2370    0.7640 C.d       1 LIG     -0.386600
     14 C4         -5.1650    0.3610    1.6200 C.f       1 LIG     -0.002000
     15 C5         -6.3150    0.7430    1.0640 C.2       1 LIG     -0.320200
     16 C6         -6.3900    1.0160   -0.4190 C.3       1 LIG      0.291000
     17 C7         -0.4140   -2.4500   -0.3560 C.3       1 LIG     -0.120400
     18 C8          2.8660   -0.7210   -0.3270 C.3       1 LIG      0.222400
     19 C9          1.6630   -1.3870    0.3440 C.3       1 LIG      0.061100
     20 O5          0.5680   -0.4530    0.4550 O.2       1 LIG     -0.440600
     21 C10        -0.6130   -1.2680    0.6180 C.3       1 LIG      0.291500
     22 C11         1.1180   -2.5310   -0.5400 C.3       1 LIG      0.108100
     23 O6          1.6110   -3.7930   -0.0870 O.h       1 LIG     -0.650800
     24 H          -2.8320   -0.9800    2.0200 H         1 LIG      0.303000
     25 H1         -5.0900    2.4660   -1.3670 H         1 LIG      0.418800
     26 H2         -5.1120    0.1560    2.6300 H         1 LIG      0.243000
     27 H3         -7.1570    0.8530    1.6500 H         1 LIG      0.120000
     28 H4         -6.5540    0.0980   -0.9440 H         1 LIG     -0.000300
     29 H5         -7.1980    1.6870   -0.6220 H         1 LIG     -0.000300
     30 H6         -0.8990   -2.2590   -1.2900 H         1 LIG      0.051200
     31 H7         -0.8330   -3.3630    0.0140 H         1 LIG      0.051200
     32 H8          3.6260   -1.4530   -0.5040 H         1 LIG     -0.001800
     33 H9          2.5620   -0.2910   -1.2580 H         1 LIG     -0.001800
     34 H10         1.9950   -1.7370    1.2990 H         1 LIG      0.045700
     35 H11        -0.7440   -1.5930    1.6290 H         1 LIG      0.093700
     36 H12         1.4160   -2.4390   -1.5630 H         1 LIG      0.144700
     37 H13         1.3640   -3.9220    0.8420 H         1 LIG      0.475000
@<TRIPOS>BOND
     1    1    2 1   
     2    2    3 1   
     3    2    4 1   
     4    2    5 1   
     5    5   18 1   
     6    6    7 1   
     7    6    8 1   
     8    6   21 1   
     9    7   13 2   
    10    8    9 2   
    11    8   10 1   
    12   10   11 2   
    13   11   12 1   
    14   11   13 1   
    15   12   16 1   
    16   13   14 1   
    17   14   15 2   
    18   15   16 1   
    19   17   21 1   
    20   17   22 1   
    21   18   19 1   
    22   19   20 1   
    23   19   22 1   
    24   20   21 1   
    25   22   23 1   
    26    7   24 1   
    27   12   25 1   
    28   14   26 1   
    29   15   27 1   
    30   16   28 1   
    31   16   29 1   
    32   17   30 1   
    33   17   31 1   
    34   18   32 1   
    35   18   33 1   
    36   19   34 1   
    37   21   35 1   
    38   22   36 1   
    39   23   37 1   
@<TRIPOS>SUBSTRUCTURE
     1 LIG         1 TEMP              0 ****  ****    0 ROOT
