@<TRIPOS>MOLECULE
8XQ
   20    21     1     0     0
SMALL
bcc


@<TRIPOS>ATOM
      1 O           3.5350   -0.7750    0.1020 o         1 LIG     -0.826300
      2 O1          2.6940    1.2710   -0.0950 o         1 LIG     -0.826300
      3 O2         -2.7600   -1.9810   -0.0300 oh        1 LIG     -0.491100
      4 C          -0.9600    2.6540    0.0250 ca        1 LIG     -0.290300
      5 C1         -2.2230    2.0700    0.0180 ca        1 LIG      0.384200
      6 C2         -0.4170   -2.3020   -0.0340 ca        1 LIG     -0.220000
      7 C3          0.8790   -1.8140   -0.0280 ca        1 LIG     -0.097000
      8 C4          0.1560    1.8630    0.0160 ca        1 LIG     -0.053000
      9 N          -2.3810    0.7680    0.0020 nb        1 LIG     -0.659000
     10 C5          2.4950    0.0750   -0.0050 c         1 LIG      0.911200
     11 C6         -1.5080   -1.4600   -0.0240 ca        1 LIG      0.045800
     12 C7          1.1180   -0.4440   -0.0110 ca        1 LIG     -0.119600
     13 C8         -0.0210    0.4710   -0.0010 ca        1 LIG     -0.100300
     14 C9         -1.3320   -0.0580   -0.0070 ca        1 LIG      0.362600
     15 H          -2.8810   -2.9100   -0.0410 ho        1 LIG      0.396000
     16 H1         -0.8660    3.6820    0.0370 ha        1 LIG      0.124000
     17 H2         -3.0570    2.6770    0.0260 h4        1 LIG     -0.004900
     18 H3         -0.5700   -3.3230   -0.0460 ha        1 LIG      0.112000
     19 H4          1.6740   -2.4720   -0.0360 ha        1 LIG      0.154000
     20 H5          1.1010    2.2780    0.0220 ha        1 LIG      0.201000
@<TRIPOS>BOND
     1    1   10 1   
     2    2   10 1   
     3    3   11 1   
     4    4    5 ar  
     5    4    8 ar  
     6    5    9 ar  
     7    6    7 ar  
     8    6   11 ar  
     9    7   12 ar  
    10    8   13 ar  
    11    9   14 ar  
    12   10   12 1   
    13   11   14 ar  
    14   12   13 ar  
    15   13   14 ar  
    16    3   15 1   
    17    4   16 1   
    18    5   17 1   
    19    6   18 1   
    20    7   19 1   
    21    8   20 1   
@<TRIPOS>SUBSTRUCTURE
     1 LIG         1 TEMP              0 ****  ****    0 ROOT
