@<TRIPOS>MOLECULE
USM
   35    36     1     0     0
SMALL
bcc


@<TRIPOS>ATOM
      1 O          -5.0090    1.9960   -1.1290 O.3       1 LIG     -0.922833
      2 P          -4.5430    0.9250   -0.0210 P.5       1 LIG      1.342900
      3 O1         -4.4510    1.5900    1.2990 O.3       1 LIG     -0.922833
      4 O2         -5.6180   -0.2710    0.0550 O.3       1 LIG     -0.922833
      5 O3         -3.1030    0.3290   -0.4230 O.2       1 LIG     -0.569200
      6 N           2.1390    0.6960   -0.1570 N.        1 LIG     -0.372000
      7 C           2.0390    1.3340    1.0490 C.c       1 LIG      0.073600
      8 C1          3.1500    0.9780   -0.9990 C.        1 LIG      0.797500
      9 O4          3.2220    0.3970   -2.0650 O.3       1 LIG     -0.700500
     10 N1          4.0810    1.8960   -0.6800 N.        1 LIG     -0.598500
     11 C2          4.0150    2.5490    0.4980 C.        1 LIG      0.716700
     12 O5          4.8580    3.3790    0.7880 O.3       1 LIG     -0.692500
     13 C3          2.9630    2.2550    1.3980 C.d       1 LIG     -0.371200
     14 C4          1.2120   -1.5210    0.4210 C.3       1 LIG     -0.007600
     15 S           2.1730   -2.8640   -0.3290 S.3       1 LIG     -0.345200
     16 C5          2.2560   -4.0970    0.9980 C.3       1 LIG     -0.029000
     17 C6         -2.3710   -0.5690    0.4140 C.3       1 LIG      0.224400
     18 C7         -1.0510   -0.9380   -0.2660 C.3       1 LIG      0.065100
     19 O6         -0.1930    0.2200   -0.3590 O.2       1 LIG     -0.429600
     20 C8          1.1410   -0.3080   -0.5330 C.3       1 LIG      0.318500
     21 C9         -0.2630   -1.9450    0.6010 C.3       1 LIG      0.111100
     22 O7         -0.4620   -3.2780    0.1260 O.h       1 LIG     -0.656800
     23 H           1.2610    1.1120    1.6890 H         1 LIG      0.307000
     24 H1          4.8130    2.0910   -1.3090 H         1 LIG      0.321500
     25 H2          2.9030    2.7380    2.3080 H         1 LIG      0.188000
     26 H3          1.6900   -1.2880    1.3490 H         1 LIG      0.080700
     27 H4          2.8100   -4.9480    0.6600 H         1 LIG      0.060367
     28 H5          1.2650   -4.4000    1.2660 H         1 LIG      0.060367
     29 H6          2.7410   -3.6710    1.8510 H         1 LIG      0.060367
     30 H7         -2.9480   -1.4550    0.5770 H         1 LIG     -0.000300
     31 H8         -2.1690   -0.0970    1.3530 H         1 LIG     -0.000300
     32 H9         -1.2980   -1.3380   -1.2280 H         1 LIG      0.053700
     33 H10         1.3410   -0.5790   -1.5490 H         1 LIG      0.107700
     34 H11        -0.5730   -1.9380    1.6250 H         1 LIG      0.156700
     35 H12        -0.1940   -3.3330   -0.8040 H         1 LIG      0.494000
@<TRIPOS>BOND
     1    2    1 1   
     2    2    4 1   
     3    3    2 1   
     4    5    2 1   
     5    6    8 1   
     6    6   20 1   
     7    7    6 1   
     8    8    9 2   
     9   10    8 1   
    10   11   10 1   
    11   12   11 2   
    12   13    7 2   
    13   13   11 1   
    14   14   20 1   
    15   14   15 1   
    16   15   16 1   
    17   17    5 1   
    18   17   18 1   
    19   18   19 1   
    20   19   20 1   
    21   21   14 1   
    22   21   18 1   
    23   22   21 1   
    24    7   23 1   
    25   10   24 1   
    26   13   25 1   
    27   14   26 1   
    28   16   27 1   
    29   16   28 1   
    30   16   29 1   
    31   17   30 1   
    32   17   31 1   
    33   18   32 1   
    34   20   33 1   
    35   21   34 1   
    36   22   35 1   
@<TRIPOS>SUBSTRUCTURE
     1 LIG         1 TEMP              0 ****  ****    0 ROOT
