@<TRIPOS>MOLECULE
HQY
   18    19     1     0     0
SMALL
bcc


@<TRIPOS>ATOM
      1 O           1.7630    2.0180    0.0300 O.h       1 LIG     -0.467100
      2 C          -2.6950   -0.2020   -0.0060 C.a       1 LIG     -0.236300
      3 C1         -2.2300    1.1100    0.0070 C.a       1 LIG      0.397200
      4 C2         -1.8070   -1.2400   -0.0120 C.a       1 LIG     -0.093000
      5 C3          1.8610   -1.6220    0.0000 C.a       1 LIG     -0.084000
      6 N          -0.9480    1.3880    0.0140 N.b       1 LIG     -0.624000
      7 C4          0.5400   -1.9520   -0.0080 C.a       1 LIG     -0.151000
      8 C5          1.3500    0.7240    0.0170 C.a       1 LIG      0.098800
      9 C6          2.2650   -0.2890    0.0130 C.a       1 LIG     -0.232000
     10 C7         -0.4320   -0.9380   -0.0040 C.a       1 LIG     -0.117300
     11 C8         -0.0280    0.4200    0.0090 C.a       1 LIG      0.376600
     12 H           2.6790    2.2180    0.0350 H         1 LIG      0.416000
     13 H1         -3.7100   -0.3900   -0.0110 H         1 LIG      0.144000
     14 H2         -2.9120    1.8850    0.0110 H         1 LIG      0.024100
     15 H3         -2.1350   -2.2180   -0.0220 H         1 LIG      0.140000
     16 H4          2.5720   -2.3690   -0.0040 H         1 LIG      0.136000
     17 H5          0.2540   -2.9430   -0.0170 H         1 LIG      0.136000
     18 H6          3.2720   -0.0640    0.0200 H         1 LIG      0.137000
@<TRIPOS>BOND
     1    1    8 1   
     2    2    3 ar  
     3    2    4 ar  
     4    3    6 ar  
     5    4   10 ar  
     6    5    7 ar  
     7    5    9 ar  
     8    6   11 ar  
     9    7   10 ar  
    10    8    9 ar  
    11    8   11 ar  
    12   10   11 ar  
    13    1   12 1   
    14    2   13 1   
    15    3   14 1   
    16    4   15 1   
    17    5   16 1   
    18    7   17 1   
    19    9   18 1   
@<TRIPOS>SUBSTRUCTURE
     1 LIG         1 TEMP              0 ****  ****    0 ROOT
