@<TRIPOS>MOLECULE
8JS
   33    34     1     0     0
SMALL
bcc


@<TRIPOS>ATOM
      1 C          -3.8530    0.2510   -0.9040 C.a       1 LIG     -0.110500
      2 C1         -4.7410   -0.9670    0.9700 C.a       1 LIG     -0.110500
      3 C2          1.2340   -0.0560    0.7440 C.a       1 LIG     -0.189000
      4 C3          2.0300   -1.8000   -0.7060 C.a       1 LIG     -0.189000
      5 C4         -4.9770    1.0550   -0.9100 C.a       1 LIG     -0.153000
      6 C5         -5.8630   -0.1610    0.9590 C.a       1 LIG     -0.153000
      7 C6          2.4900    0.5190    0.7370 C.a       1 LIG      0.006500
      8 C7          3.2810   -1.2140   -0.7180 C.a       1 LIG      0.006500
      9 C8         -3.7320   -0.7630    0.0370 C.a       1 LIG      0.023600
     10 C9          1.0000   -1.2190    0.0210 C.a       1 LIG      0.130600
     11 C10        -5.9820    0.8500    0.0200 C.a       1 LIG      0.122900
     12 C11         3.5120   -0.0590    0.0070 C.a       1 LIG     -0.410500
     13 C12        -1.3700   -1.0280   -0.0690 C.        1 LIG      0.574400
     14 N           5.9640    0.0130    1.2550 N.3       1 LIG     -1.026700
     15 N1         -2.5950   -1.5790    0.0460 N.        1 LIG     -0.426100
     16 N2         -0.2710   -1.8030    0.0270 N.        1 LIG     -0.443100
     17 O           5.7500    0.2410   -1.1930 O.3       1 LIG     -0.659800
     18 O1          4.9250    2.0480    0.3240 O.3       1 LIG     -0.659800
     19 F          -7.0790    1.6370    0.0120 F.        1 LIG     -0.135900
     20 S          -1.2090    0.6550   -0.3370 S.        1 LIG     -0.507400
     21 S1          5.1130    0.6780   -0.0010 S.y       1 LIG      1.531200
     22 H          -3.1050    0.4040   -1.5980 H         1 LIG      0.158000
     23 H1         -4.6520   -1.7200    1.6700 H         1 LIG      0.158000
     24 H2          0.4700    0.3780    1.2860 H         1 LIG      0.161500
     25 H3          1.8610   -2.6690   -1.2370 H         1 LIG      0.161500
     26 H4         -5.0670    1.8090   -1.6090 H         1 LIG      0.155000
     27 H5         -6.6130   -0.3120    1.6510 H         1 LIG      0.155000
     28 H6          2.6660    1.3810    1.2770 H         1 LIG      0.156500
     29 H7          4.0440   -1.6380   -1.2680 H         1 LIG      0.156500
     30 H8          5.5440    0.2990    2.1390 H         1 LIG      0.447300
     31 H9          6.9310    0.3350    1.2190 H         1 LIG      0.447300
     32 H10        -2.6900   -2.5550    0.1360 H         1 LIG      0.307500
     33 H11        -0.3630   -2.7800    0.1010 H         1 LIG      0.314500
@<TRIPOS>BOND
     1    1    5 ar  
     2    1    9 ar  
     3    2    6 ar  
     4    3    7 ar  
     5    4    8 ar  
     6    5   11 ar  
     7    7   12 ar  
     8    8   12 ar  
     9    9    2 ar  
    10   10    3 ar  
    11   10    4 ar  
    12   11   19 1   
    13   11    6 ar  
    14   12   21 1   
    15   13   16 1   
    16   14   21 1   
    17   15   13 1   
    18   15    9 1   
    19   16   10 1   
    20   18   21 2   
    21   20   13 2   
    22   21   17 2   
    23    1   22 1   
    24    2   23 1   
    25    3   24 1   
    26    4   25 1   
    27    5   26 1   
    28    6   27 1   
    29    7   28 1   
    30    8   29 1   
    31   14   30 1   
    32   14   31 1   
    33   15   32 1   
    34   16   33 1   
@<TRIPOS>SUBSTRUCTURE
     1 LIG         1 TEMP              0 ****  ****    0 ROOT
