@<TRIPOS>MOLECULE
MPT
   11    10     1     0     0
SMALL
bcc


@<TRIPOS>ATOM
      1 C          -0.1960   -0.5950    0.0000 c3        1 LIG     -0.215400
      2 C1         -1.5830   -0.0040    0.0000 c         1 LIG      0.915600
      3 O          -1.7280    1.1950   -0.0000 o         1 LIG     -0.841800
      4 C2          0.8380    0.5320   -0.0000 c3        1 LIG      0.075700
      5 S           2.5070   -0.1790    0.0000 sh        1 LIG     -0.509900
      6 O1         -2.6560   -0.8100    0.0000 o         1 LIG     -0.841800
      7 H          -0.0660   -1.1990   -0.8740 hc        1 LIG      0.031200
      8 H1         -0.0660   -1.1990    0.8740 hc        1 LIG      0.031200
      9 H2          0.7080    1.1360    0.8740 h1        1 LIG      0.074200
     10 H3          0.7080    1.1360   -0.8740 h1        1 LIG      0.074200
     11 H4          2.6730   -0.9470    1.1100 hs        1 LIG      0.205800
@<TRIPOS>BOND
     1    1    2 1   
     2    1    4 1   
     3    2    3 1   
     4    2    6 1   
     5    4    5 1   
     6    1    7 1   
     7    1    8 1   
     8    4    9 1   
     9    4   10 1   
    10    5   11 1   
@<TRIPOS>SUBSTRUCTURE
     1 LIG         1 TEMP              0 ****  ****    0 ROOT
