@<TRIPOS>MOLECULE
RS7
   38    38     1     0     0
SMALL
bcc


@<TRIPOS>ATOM
      1 C          -4.9930  -10.6400    0.9020 C.        1 LIG      0.888800
      2 O          -5.7110  -10.7070    1.8850 O.3       1 LIG     -0.831300
      3 O1         -5.4130  -10.7990   -0.3750 O.3       1 LIG     -0.831300
      4 C1         -3.5400  -10.3750    0.8930 C.e       1 LIG     -0.150200
      5 C2         -2.8830  -10.1920    2.0570 C.f       1 LIG     -0.191200
      6 C3         -1.4520   -9.9340    2.1810 C.a       1 LIG      0.030200
      7 C4         -0.5940  -11.0290    2.2830 C.a       1 LIG     -0.148000
      8 C5          0.7810  -10.8280    2.4030 C.a       1 LIG     -0.125000
      9 C6          1.2980   -9.5330    2.4220 C.a       1 LIG     -0.171000
     10 C7          0.4400   -8.4380    2.3210 C.a       1 LIG     -0.111000
     11 C8         -0.9360   -8.6360    2.2000 C.a       1 LIG      0.003000
     12 C9         -1.7850   -7.4900    2.0990 C.g       1 LIG     -0.090000
     13 C10        -2.4950   -6.5240    2.0110 C.1       1 LIG     -0.145100
     14 C11        -3.3600   -5.3420    1.9020 C.3       1 LIG      0.007700
     15 C12        -2.5760   -4.0360    2.0370 C.3       1 LIG     -0.076400
     16 C13        -3.4640   -2.7930    1.9110 C.3       1 LIG     -0.080400
     17 C14        -2.6380   -1.5090    2.0220 C.3       1 LIG     -0.078400
     18 C15        -3.5160   -0.2680    1.8670 C.3       1 LIG     -0.080400
     19 C16        -2.6950    1.0090    1.9430 C.3       1 LIG     -0.091100
     20 H          -3.0280  -10.3300   -0.0020 H         1 LIG      0.098000
     21 H1         -3.4350  -10.2380    2.9280 H         1 LIG      0.155000
     22 H2         -0.9760  -11.9880    2.2700 H         1 LIG      0.140000
     23 H3          1.4160  -11.6380    2.4780 H         1 LIG      0.115000
     24 H4          2.3150   -9.3850    2.5110 H         1 LIG      0.114000
     25 H5          0.8230   -7.4800    2.3360 H         1 LIG      0.120000
     26 H6         -4.0980   -5.3830    2.6760 H         1 LIG      0.059700
     27 H7         -3.8120   -5.3540    0.9320 H         1 LIG      0.059700
     28 H8         -1.8320   -4.0030    1.2690 H         1 LIG      0.044700
     29 H9         -2.1400   -4.0220    3.0140 H         1 LIG      0.044700
     30 H10        -4.1960   -2.8060    2.6920 H         1 LIG      0.039700
     31 H11        -3.9360   -2.8100    0.9510 H         1 LIG      0.039700
     32 H12        -1.8930   -1.5070    1.2540 H         1 LIG      0.038700
     33 H13        -2.1840   -1.4820    2.9910 H         1 LIG      0.038700
     34 H14        -4.2460   -0.2590    2.6490 H         1 LIG      0.038200
     35 H15        -3.9860   -0.3080    0.9070 H         1 LIG      0.038200
     36 H16        -2.2150    1.0680    2.8970 H         1 LIG      0.029033
     37 H17        -3.3380    1.8550    1.8140 H         1 LIG      0.029033
     38 H18        -1.9540    1.0030    1.1710 H         1 LIG      0.029033
@<TRIPOS>BOND
     1    1    4 1   
     2    2    1 1   
     3    3    1 1   
     4    4    5 2   
     5    5    6 1   
     6    6   11 ar  
     7    7    6 ar  
     8    7    8 ar  
     9    8    9 ar  
    10    9   10 ar  
    11   11   12 1   
    12   11   10 ar  
    13   12   13 3   
    14   13   14 1   
    15   14   15 1   
    16   16   15 1   
    17   17   16 1   
    18   18   17 1   
    19   19   18 1   
    20    4   20 1   
    21    5   21 1   
    22    7   22 1   
    23    8   23 1   
    24    9   24 1   
    25   10   25 1   
    26   14   26 1   
    27   14   27 1   
    28   15   28 1   
    29   15   29 1   
    30   16   30 1   
    31   16   31 1   
    32   17   32 1   
    33   17   33 1   
    34   18   34 1   
    35   18   35 1   
    36   19   36 1   
    37   19   37 1   
    38   19   38 1   
@<TRIPOS>SUBSTRUCTURE
     1 LIG         1 TEMP              0 ****  ****    0 ROOT
