@<TRIPOS>MOLECULE
F18
   26    27     1     0     0
SMALL
bcc


@<TRIPOS>ATOM
      1 C           2.8710    0.5400   -0.4330 C.a       1 LIG      0.128100
      2 C1          1.8570    0.5730   -1.3820 C.a       1 LIG     -0.188000
      3 C2          0.8060   -0.3150   -1.3020 C.a       1 LIG     -0.082500
      4 O           3.9040    1.4180   -0.5160 O.h       1 LIG     -0.493100
      5 C3          0.7630   -1.2510   -0.2650 C.a       1 LIG      0.006400
      6 C4          1.7850   -1.2800    0.6870 C.a       1 LIG     -0.082500
      7 C5          2.8290   -0.3840    0.6030 C.a       1 LIG     -0.188000
      8 N          -0.2780   -2.1340   -0.1820 N.e       1 LIG     -0.164400
      9 N1         -1.4780   -1.7010    0.0100 N.f       1 LIG     -0.100400
     10 C6         -1.6960   -0.3770    0.2250 C.d       1 LIG     -0.232900
     11 C7         -2.6080    0.4330   -0.4480 C.c       1 LIG      0.179300
     12 N2         -3.4620    0.0410   -1.4620 N.h       1 LIG     -0.796200
     13 N3         -2.5030    1.6730    0.0750 N.a       1 LIG     -0.029600
     14 N4         -1.5280    1.6530    1.0770 N.c       1 LIG     -0.597800
     15 C8         -1.0430    0.4420    1.1830 C.d       1 LIG      0.577200
     16 N5         -0.0550    0.0290    2.0780 N.h       1 LIG     -0.901500
     17 H           1.8910    1.2640   -2.1480 H         1 LIG      0.147000
     18 H1          0.0520   -0.2890   -2.0060 H         1 LIG      0.150000
     19 H2          3.9340    2.0420   -1.2140 H         1 LIG      0.421000
     20 H3          1.7580   -1.9720    1.4520 H         1 LIG      0.150000
     21 H4          3.5800   -0.4000    1.3100 H         1 LIG      0.147000
     22 H5         -3.4610   -0.8930   -1.7730 H         1 LIG      0.417300
     23 H6         -4.0710    0.6960   -1.8730 H         1 LIG      0.417300
     24 H7         -3.0260    2.4600   -0.2030 H         1 LIG      0.307700
     25 H8          0.2450   -0.9090    2.0820 H         1 LIG      0.405300
     26 H9          0.3420    0.6750    2.7060 H         1 LIG      0.405300
@<TRIPOS>BOND
     1    1    2 ar  
     2    1    4 1   
     3    1    7 ar  
     4    2    3 ar  
     5    3    5 ar  
     6    5    6 ar  
     7    5    8 1   
     8    6    7 ar  
     9    8    9 2   
    10    9   10 1   
    11   10   11 ar  
    12   10   15 ar  
    13   11   12 1   
    14   11   13 ar  
    15   13   14 ar  
    16   14   15 ar  
    17   15   16 1   
    18    2   17 1   
    19    3   18 1   
    20    4   19 1   
    21    6   20 1   
    22    7   21 1   
    23   12   22 1   
    24   12   23 1   
    25   13   24 1   
    26   16   25 1   
    27   16   26 1   
@<TRIPOS>SUBSTRUCTURE
     1 LIG         1 TEMP              0 ****  ****    0 ROOT
