@<TRIPOS>MOLECULE
LCA
   36    39     1     0     0
SMALL
bcc


@<TRIPOS>ATOM
      1 P           1.0070   -0.2330   -4.6870 p5        1 LIG      1.344900
      2 O           1.4210   -1.5300   -5.5470 o         1 LIG     -0.732167
      3 O1          0.2520   -0.7000   -3.3440 os        1 LIG     -0.585200
      4 C          -0.0880    0.4880   -2.6270 c3        1 LIG      0.233400
      5 C1         -1.2940    1.2890   -0.4080 c3        1 LIG      0.331100
      6 C2         -2.1660   -0.6470   -1.4890 c3        1 LIG      0.133400
      7 N           0.0870   -0.1450    1.9270 na        1 LIG     -0.218000
      8 C3          1.1430    0.7020    1.7690 cc        1 LIG      0.457700
      9 C4         -0.0140   -0.4290    3.2660 ca        1 LIG      0.429800
     10 N1          1.6900    0.9520    2.9230 nd        1 LIG     -0.611100
     11 C5          1.0180    0.2870    3.8940 ca        1 LIG     -0.204200
     12 C6          1.1530    0.1710    5.2870 ca        1 LIG      0.687200
     13 C7         -1.9750    0.3140    0.6240 c3        1 LIG     -0.008900
     14 N2          2.1550    0.8490    5.9600 nh        1 LIG     -0.926500
     15 C8         -0.8120    0.1130   -1.3320 c3        1 LIG     -0.023200
     16 C9         -0.7790   -0.6580    0.8640 c3        1 LIG      0.205800
     17 C10        -0.6640   -1.2490    5.3120 ca        1 LIG      0.635900
     18 N3          0.2940   -0.5990    5.9450 nb        1 LIG     -0.804000
     19 O2         -0.0630   -0.7010   -0.3860 os        1 LIG     -0.423600
     20 O3          2.2230    0.5300   -4.3290 o         1 LIG     -0.732167
     21 N4         -0.8250   -1.1760    4.0070 nb        1 LIG     -0.695000
     22 O4         -2.2370    2.1460   -1.0550 oh        1 LIG     -0.911800
     23 O5          0.0250    0.6970   -5.5580 o         1 LIG     -0.732167
     24 O6         -2.8670   -0.4370   -0.2460 os        1 LIG     -0.440600
     25 H          -0.7280    1.0970   -3.2300 h1        1 LIG      0.033700
     26 H1          0.8040    1.0300   -2.3930 h1        1 LIG      0.033700
     27 H2         -0.5720    1.9950   -0.0540 h1        1 LIG     -0.087300
     28 H3         -1.9940   -1.6910   -1.6500 h1        1 LIG      0.052200
     29 H4         -2.7270   -0.2930   -2.3280 h1        1 LIG      0.052200
     30 H5          1.4620    1.0880    0.8670 h5        1 LIG      0.104800
     31 H6         -2.4390    0.7260    1.4950 h1        1 LIG      0.072700
     32 H7          2.7860    1.4170    5.4610 hn        1 LIG      0.401300
     33 H8          2.2370    0.7630    6.9370 hn        1 LIG      0.401300
     34 H9         -1.1100   -1.6290    1.1680 h2        1 LIG      0.069700
     35 H10        -1.3110   -1.8370    5.8600 h5        1 LIG      0.028100
     36 H11        -2.9570    1.6130   -1.4260 ho        1 LIG      0.428000
@<TRIPOS>BOND
     1    1    2 1   
     2    1    3 1   
     3    1   20 1   
     4    1   23 1   
     5    3    4 1   
     6    4   15 1   
     7    5   13 1   
     8    5   15 1   
     9    5   22 1   
    10    6   15 1   
    11    6   24 1   
    12    7    8 1   
    13    7    9 1   
    14    7   16 1   
    15    8   10 2   
    16    9   11 ar  
    17    9   21 ar  
    18   10   11 1   
    19   11   12 ar  
    20   12   14 1   
    21   12   18 ar  
    22   13   16 1   
    23   13   24 1   
    24   15   19 1   
    25   16   19 1   
    26   17   18 ar  
    27   17   21 ar  
    28    4   25 1   
    29    4   26 1   
    30    5   27 1   
    31    6   28 1   
    32    6   29 1   
    33    8   30 1   
    34   13   31 1   
    35   14   32 1   
    36   14   33 1   
    37   16   34 1   
    38   17   35 1   
    39   22   36 1   
@<TRIPOS>SUBSTRUCTURE
     1 LIG         1 TEMP              0 ****  ****    0 ROOT
