@<TRIPOS>MOLECULE
0SK
   46    49     1     0     0
SMALL
bcc


@<TRIPOS>ATOM
      1 N           2.4950    2.9260   -0.1120 nh        1 LIG     -0.441100
      2 O           3.5150    3.9040   -0.0240 oh        1 LIG     -0.411300
      3 C           2.8220    1.5670   -0.0580 ca        1 LIG      0.052600
      4 C1          1.8370    0.6040   -0.1430 ca        1 LIG      0.000900
      5 S           0.1130    0.9860   -0.3160 ss        1 LIG     -0.108100
      6 C2          4.1450    1.1630    0.0750 ca        1 LIG     -0.070000
      7 C3          4.4560   -0.1870    0.1260 ca        1 LIG     -0.163300
      8 C4          5.8960   -0.6080    0.2710 c3        1 LIG      0.690200
      9 F           6.2660   -1.3890   -0.8280 f         1 LIG     -0.232967
     10 F1          6.7100    0.5280    0.3310 f         1 LIG     -0.232967
     11 F2          6.0480   -1.3530    1.4450 f         1 LIG     -0.232967
     12 C5          3.4770   -1.1510    0.0480 ca        1 LIG     -0.028000
     13 C6          2.1370   -0.7740   -0.0980 ca        1 LIG     -0.164600
     14 C7          1.0630   -1.7610   -0.1860 c         1 LIG      0.715100
     15 O1          1.4230   -2.9250   -0.1220 o         1 LIG     -0.511100
     16 N1         -0.2310   -1.5860   -0.3230 nc        1 LIG     -0.708100
     17 C8         -0.8850   -0.4320   -0.3970 cd        1 LIG      0.685100
     18 N2         -2.2440   -0.3660   -0.5400 nh        1 LIG     -0.678600
     19 C9         -3.0480   -1.5930   -0.6190 c3        1 LIG      0.181800
     20 C10        -4.1530   -1.5280    0.4410 c3        1 LIG     -0.121900
     21 C11        -2.9260    0.9330   -0.6120 c3        1 LIG      0.181800
     22 C12        -4.0320    0.9690    0.4490 c3        1 LIG     -0.121900
     23 C13        -4.9510   -0.2350    0.2610 c3        1 LIG      0.347600
     24 O2         -6.0090   -0.1880    1.2250 os        1 LIG     -0.431600
     25 O3         -5.5210   -0.1980   -1.0580 os        1 LIG     -0.441600
     26 C14        -6.8080    0.4430   -0.8860 c3        1 LIG      0.108400
     27 C15        -7.2500   -0.1040    0.4940 c3        1 LIG      0.118100
     28 C16        -8.2150    0.8680    1.1770 c3        1 LIG     -0.112100
     29 H           1.5550    3.2030   -0.2110 hn        1 LIG      0.393800
     30 H1          4.3750    3.4660    0.0700 ho        1 LIG      0.432000
     31 H2          4.8960    1.8680    0.1360 ha        1 LIG      0.168000
     32 H3          3.7300   -2.1500    0.0970 ha        1 LIG      0.184000
     33 H4         -2.4250   -2.4440   -0.4370 h1        1 LIG      0.076950
     34 H5         -3.4830   -1.6810   -1.5930 h1        1 LIG      0.076950
     35 H6         -3.7140   -1.5440    1.4170 hc        1 LIG      0.075450
     36 H7         -4.8050   -2.3700    0.3320 hc        1 LIG      0.075450
     37 H8         -3.3550    1.0600   -1.5840 h1        1 LIG      0.076950
     38 H9         -2.2250    1.7220   -0.4340 h1        1 LIG      0.076950
     39 H10        -4.5980    1.8710    0.3440 hc        1 LIG      0.075450
     40 H11        -3.5940    0.9360    1.4250 hc        1 LIG      0.075450
     41 H12        -7.4930    0.1560   -1.6570 h1        1 LIG      0.060200
     42 H13        -6.7710    1.5110   -0.9380 h1        1 LIG      0.060200
     43 H14        -7.7680   -1.0380    0.4320 h1        1 LIG      0.075700
     44 H15        -7.7500    1.8270    1.2680 hc        1 LIG      0.048700
     45 H16        -8.4640    0.4990    2.1500 hc        1 LIG      0.048700
     46 H17        -9.1050    0.9580    0.5910 hc        1 LIG      0.048700
@<TRIPOS>BOND
     1    2    1 1   
     2    3    6 ar  
     3    3    1 1   
     4    4    3 ar  
     5    5    4 1   
     6    7    8 1   
     7    7    6 ar  
     8    8   10 1   
     9    8    9 1   
    10   11    8 1   
    11   12    7 ar  
    12   13   12 ar  
    13   13    4 ar  
    14   14   13 1   
    15   15   14 2   
    16   16   14 1   
    17   16   17 2   
    18   17    5 1   
    19   18   17 1   
    20   18   19 1   
    21   19   20 1   
    22   21   18 1   
    23   21   22 1   
    24   23   22 1   
    25   23   20 1   
    26   23   25 1   
    27   24   23 1   
    28   26   25 1   
    29   27   24 1   
    30   27   26 1   
    31   28   27 1   
    32    1   29 1   
    33    2   30 1   
    34    6   31 1   
    35   12   32 1   
    36   19   33 1   
    37   19   34 1   
    38   20   35 1   
    39   20   36 1   
    40   21   37 1   
    41   21   38 1   
    42   22   39 1   
    43   22   40 1   
    44   26   41 1   
    45   26   42 1   
    46   27   43 1   
    47   28   44 1   
    48   28   45 1   
    49   28   46 1   
@<TRIPOS>SUBSTRUCTURE
     1 LIG         1 TEMP              0 ****  ****    0 ROOT
