@<TRIPOS>MOLECULE
GUA
   15    14     1     0     0
SMALL
bcc


@<TRIPOS>ATOM
      1 C           0.0370    0.0000    2.4790 c         1 LIG      0.903600
      2 C1         -0.8320    0.0000    1.2490 c3        1 LIG     -0.177400
      3 C2          0.0500    0.0000    0.0000 c3        1 LIG     -0.047400
      4 C3         -0.8320    0.0000   -1.2490 c3        1 LIG     -0.177400
      5 C4          0.0370    0.0000   -2.4790 c         1 LIG      0.903600
      6 O           1.2400    0.0000    2.3680 o         1 LIG     -0.878800
      7 O1         -0.5240    0.0000    3.6980 o         1 LIG     -0.878800
      8 O2          1.2400    0.0000   -2.3680 o         1 LIG     -0.878800
      9 O3         -0.5230    0.0000   -3.6980 o         1 LIG     -0.878800
     10 H          -1.4500    0.8740    1.2490 hc        1 LIG      0.007700
     11 H1         -1.4490   -0.8740    1.2490 hc        1 LIG      0.007700
     12 H2          0.6680   -0.8740    0.0000 hc        1 LIG      0.038700
     13 H3          0.6670    0.8740    0.0000 hc        1 LIG      0.038700
     14 H4         -1.4500    0.8740   -1.2490 hc        1 LIG      0.007700
     15 H5         -1.4490   -0.8740   -1.2490 hc        1 LIG      0.007700
@<TRIPOS>BOND
     1    1    2 1   
     2    1    6 1   
     3    1    7 1   
     4    2    3 1   
     5    3    4 1   
     6    4    5 1   
     7    5    8 1   
     8    5    9 1   
     9    2   10 1   
    10    2   11 1   
    11    3   12 1   
    12    3   13 1   
    13    4   14 1   
    14    4   15 1   
@<TRIPOS>SUBSTRUCTURE
     1 LIG         1 TEMP              0 ****  ****    0 ROOT
