@<TRIPOS>MOLECULE
EVT
   79    78     1     0     0
SMALL
bcc


@<TRIPOS>ATOM
      1 C           6.2800    0.3240   -0.3880 c         1 UNK      0.641100
      2 C1          4.9770    0.8370    0.1690 c3        1 UNK     -0.154400
      3 C2          4.9160    2.3570    0.0050 c3        1 UNK     -0.056400
      4 C3          3.5930    2.8780    0.5700 c3        1 UNK     -0.048300
      5 C           0.1120    1.7020   -0.5030 c3        0 UNK     -0.162400
      6 C10        -1.1580    1.6710    0.3500 c3        0 UNK     -0.070400
      7 C11        -2.3190    1.1270   -0.4850 c3        0 UNK     -0.079400
      8 O           7.0810    1.0980   -0.8690 o         1 UNK     -0.657100
      9 C12        -3.5890    1.0960    0.3680 c3        0 UNK     -0.078400
     10 N           6.5580   -0.9940   -0.3460 n         1 UNK     -0.503900
     11 C13        -4.7510    0.5510   -0.4670 c3        0 UNK     -0.079400
     12 C14        -6.0210    0.5200    0.3860 c3        0 UNK     -0.079400
     13 C15        -7.1820   -0.0240   -0.4480 c3        0 UNK     -0.078400
     14 C16        -8.4520   -0.0550    0.4040 c3        0 UNK     -0.079400
     15 C17        -9.6130   -0.6000   -0.4300 c3        0 UNK     -0.078400
     16 C18       -10.8830   -0.6310    0.4230 c3        0 UNK     -0.079400
     17 C19       -12.0440   -1.1760   -0.4120 c3        0 UNK     -0.078400
     18 C4          3.5840    4.3840    0.5210 c         1 UNK      0.903600
     19 O1          2.7360    4.9630   -0.1160 o         1 UNK     -0.850300
     20 N1          2.4810    2.3570   -0.2280 n         1 UNK     -0.492900
     21 C20         1.2550    2.2390    0.3190 c         0 UNK      0.645100
     22 O2          4.5180    5.0830    1.1850 o         1 UNK     -0.850300
     23 O           1.0730    2.5640    1.4730 o         0 UNK     -0.658100
     24 C21       -13.3140   -1.2070    0.4410 c3        0 UNK     -0.079400
     25 C22       -14.4760   -1.7510   -0.3940 c3        0 UNK     -0.079400
     26 C23       -15.7460   -1.7820    0.4590 c3        0 UNK     -0.080400
     27 C24       -16.9070   -2.3270   -0.3750 c3        0 UNK     -0.091100
     28 C5          8.8080   -3.8650    1.9530 c         1 UNK      0.902600
     29 O3          8.8450   -4.8870    1.3100 o         1 UNK     -0.884800
     30 C6          8.4520   -2.5640    1.2810 c3        1 UNK     -0.175400
     31 C7          8.1860   -2.8140   -0.2050 c3        1 UNK     -0.048400
     32 C8          7.8250   -1.4930   -0.8880 c3        1 UNK     -0.039300
     33 C9          7.6830   -1.7170   -2.3710 c         1 UNK      0.898600
     34 O4          8.7250   -2.1750   -3.0830 o         1 UNK     -0.864300
     35 O5          6.6330   -1.4830   -2.9200 o         1 UNK     -0.864300
     36 O6          9.0830   -3.8880    3.2670 o         1 UNK     -0.884800
     37 H           4.9100    0.5870    1.2070 hc        1 UNK      0.051700
     38 H1          4.1620    0.3880   -0.3590 hc        1 UNK      0.051700
     39 H2          5.7310    2.8060    0.5330 hc        1 UNK      0.059700
     40 H3          4.9840    2.6070   -1.0330 hc        1 UNK      0.059700
     41 H4          3.4860    2.5530    1.5840 h1        1 UNK      0.071700
     42 H          -0.0440    2.3330   -1.3530 hc        0 UNK      0.054200
     43 H12         0.3440    0.7110   -0.8340 hc        0 UNK      0.054200
     44 H13        -1.3900    2.6620    0.6810 hc        0 UNK      0.054700
     45 H14        -1.0020    1.0390    1.1990 hc        0 UNK      0.054700
     46 H15        -2.0870    0.1360   -0.8160 hc        0 UNK      0.033200
     47 H16        -2.4750    1.7590   -1.3340 hc        0 UNK      0.033200
     48 H17        -3.8210    2.0870    0.6980 hc        0 UNK      0.040200
     49 H18        -3.4330    0.4640    1.2180 hc        0 UNK      0.040200
     50 H5          5.9100   -1.6210    0.0490 hn        1 UNK      0.298500
     51 H19        -4.5190   -0.4400   -0.7970 hc        0 UNK      0.036700
     52 H20        -4.9070    1.1830   -1.3170 hc        0 UNK      0.036700
     53 H21        -6.2530    1.5110    0.7170 hc        0 UNK      0.038200
     54 H22        -5.8650   -0.1120    1.2350 hc        0 UNK      0.038200
     55 H23        -6.9500   -1.0150   -0.7780 hc        0 UNK      0.037700
     56 H24        -7.3380    0.6080   -1.2970 hc        0 UNK      0.037700
     57 H25        -8.6840    0.9360    0.7340 hc        0 UNK      0.038200
     58 H26        -8.2960   -0.6870    1.2540 hc        0 UNK      0.038200
     59 H27        -9.3810   -1.5910   -0.7600 hc        0 UNK      0.038200
     60 H28        -9.7690    0.0310   -1.2800 hc        0 UNK      0.038200
     61 H29       -11.1150    0.3600    0.7530 hc        0 UNK      0.038700
     62 H30       -10.7270   -1.2620    1.2730 hc        0 UNK      0.038700
     63 H31       -11.8120   -2.1670   -0.7420 hc        0 UNK      0.038700
     64 H32       -12.2000   -0.5450   -1.2620 hc        0 UNK      0.038700
     65 H6          2.6290    2.0930   -1.1650 hn        1 UNK      0.305500
     66 H33       -13.5460   -0.2160    0.7720 hc        0 UNK      0.038700
     67 H34       -13.1580   -1.8390    1.2900 hc        0 UNK      0.038700
     68 H35       -14.2440   -2.7420   -0.7250 hc        0 UNK      0.038700
     69 H36       -14.6320   -1.1190   -1.2430 hc        0 UNK      0.038700
     70 H37       -15.9780   -0.7910    0.7890 hc        0 UNK      0.037700
     71 H38       -15.5900   -2.4130    1.3090 hc        0 UNK      0.037700
     72 H39       -17.0630   -1.6960   -1.2250 hc        0 UNK      0.029700
     73 H40       -17.7950   -2.3490    0.2210 hc        0 UNK      0.029700
     74 H41       -16.6750   -3.3180   -0.7050 hc        0 UNK      0.029700
     75 H7          9.2630   -1.8740    1.3870 hc        1 UNK      0.023200
     76 H8          7.5740   -2.1550    1.7370 hc        1 UNK      0.023200
     77 H9          7.3750   -3.5040   -0.3110 hc        1 UNK      0.042700
     78 H10         9.0640   -3.2230   -0.6600 hc        1 UNK      0.042700
     79 H11         8.5980   -0.7750   -0.7080 h1        1 UNK      0.068700
@<TRIPOS>BOND
     1    1    2 1   
     2    1    8 2   
     3    3    4 1   
     4    3    2 1   
     5    5    6 1   
     6    5   21 1   
     7    7    6 1   
     8    7    9 1   
     9    9   11 1   
    10   10    1 1   
    11   11   12 1   
    12   12   13 1   
    13   13   14 1   
    14   14   15 1   
    15   15   16 1   
    16   16   17 1   
    17   17   24 1   
    18   18    4 1   
    19   18   22 1   
    20   19   18 1   
    21   20   21 1   
    22   20    4 1   
    23   21   23 2   
    24   24   25 1   
    25   25   26 1   
    26   26   27 1   
    27   28   30 1   
    28   28   36 1   
    29   29   28 1   
    30   30   31 1   
    31   31   32 1   
    32   32   10 1   
    33   32   33 1   
    34   33   35 1   
    35   33   34 1   
    36    2   37 1   
    37    2   38 1   
    38    3   39 1   
    39    3   40 1   
    40    4   41 1   
    41    5   42 1   
    42    5   43 1   
    43    6   44 1   
    44    6   45 1   
    45    7   46 1   
    46    7   47 1   
    47    9   48 1   
    48    9   49 1   
    49   10   50 1   
    50   11   51 1   
    51   11   52 1   
    52   12   53 1   
    53   12   54 1   
    54   13   55 1   
    55   13   56 1   
    56   14   57 1   
    57   14   58 1   
    58   15   59 1   
    59   15   60 1   
    60   16   61 1   
    61   16   62 1   
    62   17   63 1   
    63   17   64 1   
    64   20   65 1   
    65   24   66 1   
    66   24   67 1   
    67   25   68 1   
    68   25   69 1   
    69   26   70 1   
    70   26   71 1   
    71   27   72 1   
    72   27   73 1   
    73   27   74 1   
    74   30   75 1   
    75   30   76 1   
    76   31   77 1   
    77   31   78 1   
    78   32   79 1   
@<TRIPOS>SUBSTRUCTURE
     1 UNK         1 TEMP              0 ****  ****    0 ROOT
