@<TRIPOS>MOLECULE
CMC
   85    87     1     0     0
SMALL
bcc


@<TRIPOS>ATOM
      1 N          -5.1760    7.3480    0.9380 nb        1 LIG     -0.810000
      2 C          -5.9770    6.4900    1.5420 ca        1 LIG      0.603900
      3 N1         -5.9040    5.1910    1.3380 nb        1 LIG     -0.668000
      4 C1         -5.0040    4.6860    0.5010 ca        1 LIG      0.429800
      5 C2         -4.1280    5.5580   -0.1670 ca        1 LIG     -0.188200
      6 C3         -4.2450    6.9360    0.0830 ca        1 LIG      0.637200
      7 N2         -3.4100    7.8430   -0.5450 nh        1 LIG     -0.911500
      8 N3         -3.3250    4.7960   -0.9480 nc        1 LIG     -0.624100
      9 C4         -3.6440    3.5430   -0.8040 cd        1 LIG      0.481700
     10 N4         -4.6750    3.4230    0.0790 na        1 LIG     -0.229000
     11 C5         -5.3140    2.1740    0.5010 c3        1 LIG      0.215800
     12 C6         -6.5750    1.8900   -0.3530 c3        1 LIG      0.101100
     13 O          -7.7210    2.5460    0.1950 oh        1 LIG     -0.662800
     14 C7         -6.7090    0.3530   -0.2340 c3        1 LIG      0.179100
     15 O1         -7.6620    0.0100    0.7750 os        1 LIG     -0.560200
     16 P          -8.9760   -0.8720    0.4770 p5        1 LIG      1.318900
     17 O2         -8.5780   -2.1510   -0.1520 o         1 LIG     -0.923167
     18 O3         -9.7470   -1.1700    1.8580 o         1 LIG     -0.923167
     19 O4         -9.9500   -0.0650   -0.5180 o         1 LIG     -0.923167
     20 C8         -5.3000   -0.1190    0.1740 c3        1 LIG      0.100100
     21 O5         -4.4580    1.0450    0.2230 os        1 LIG     -0.417600
     22 C9         -4.7620   -1.1070   -0.8620 c3        1 LIG      0.175400
     23 O6         -3.5070   -1.6270   -0.4180 os        1 LIG     -0.588200
     24 P1         -2.6520   -2.6980   -1.2640 p5        1 LIG      1.613800
     25 O7         -2.4110   -2.1710   -2.6260 o         1 LIG     -0.882000
     26 O8         -3.4700   -4.0810   -1.3610 o         1 LIG     -0.882000
     27 O9         -1.2420   -2.9580   -0.5310 os        1 LIG     -0.802800
     28 P2          0.1750   -3.5500   -1.0130 p5        1 LIG      1.624800
     29 O10        -0.0510   -4.6960   -1.9210 o         1 LIG     -0.903000
     30 O11         0.9990   -2.4050   -1.7880 o         1 LIG     -0.903000
     31 O12         1.0160   -4.0400    0.2700 os        1 LIG     -0.566200
     32 C10         2.7960   -5.0330    1.5690 c3        1 LIG     -0.101000
     33 C11         2.2740   -4.7090    0.1670 c3        1 LIG      0.229400
     34 C12         2.9710   -3.7350    2.3600 c3        1 LIG     -0.093100
     35 C13         1.7950   -5.9380    2.2890 c3        1 LIG     -0.093100
     36 C14         4.1440   -5.7490    1.4580 c3        1 LIG      0.086100
     37 O13         3.9570   -7.0220    0.8370 oh        1 LIG     -0.609800
     38 C15         5.0870   -4.9180    0.6270 c         1 LIG      0.621100
     39 O14         5.4380   -5.3090   -0.4660 o         1 LIG     -0.690100
     40 N5          5.5420   -3.7400    1.0990 n         1 LIG     -0.511900
     41 C16         6.3810   -2.8870    0.2540 c3        1 LIG      0.054000
     42 C17         6.7580   -1.6200    1.0230 c3        1 LIG     -0.152400
     43 C18         7.6220   -0.7420    0.1540 c         1 LIG      0.657100
     44 O15         7.9070   -1.0960   -0.9710 o         1 LIG     -0.684100
     45 N6          8.0760    0.4350    0.6260 n         1 LIG     -0.565900
     46 C19         8.9150    1.2880   -0.2200 c3        1 LIG      0.099000
     47 C20         9.2920    2.5560    0.5490 c3        1 LIG     -0.038300
     48 S          10.3320    3.6120   -0.4970 ss        1 LIG     -0.321200
     49 C21        10.6690    5.0390    0.5710 c3        1 LIG     -0.111300
     50 C22        11.5370    6.0250   -0.1680 c         1 LIG      0.926600
     51 O16        11.8910    5.7890   -1.2990 o         1 LIG     -0.848300
     52 O17        11.9160    7.1650    0.4300 o         1 LIG     -0.848300
     53 H          -6.6870    6.8510    2.1990 h5        1 LIG      0.012100
     54 H1         -3.5020    8.8060   -0.3610 hn        1 LIG      0.378300
     55 H2         -2.7240    7.5260   -1.1750 hn        1 LIG      0.378300
     56 H3         -3.1840    2.7560   -1.2870 h5        1 LIG      0.185800
     57 H4         -5.5310    2.2880    1.5420 h2        1 LIG      0.088700
     58 H5         -6.5010    2.2400   -1.3610 h1        1 LIG      0.025700
     59 H6         -7.8430    2.2680    1.1160 ho        1 LIG      0.498000
     60 H7         -7.0490   -0.1010   -1.1410 h1        1 LIG      0.084700
     61 H8         -5.3240   -0.6110    1.1240 h1        1 LIG      0.084700
     62 H9         -4.6290   -0.6060   -1.7980 h1        1 LIG      0.023200
     63 H10        -5.4580   -1.9110   -0.9840 h1        1 LIG      0.023200
     64 H11         2.9740   -4.0760   -0.3370 h1        1 LIG      0.000700
     65 H12         2.1510   -5.6170   -0.3860 h1        1 LIG      0.000700
     66 H13         2.0280   -3.2350    2.4370 hc        1 LIG      0.040533
     67 H14         3.6710   -3.1020    1.8560 hc        1 LIG      0.040533
     68 H15         3.3360   -3.9610    3.3400 hc        1 LIG      0.040533
     69 H16         0.8530   -5.4370    2.3660 hc        1 LIG      0.040533
     70 H17         2.1600   -6.1650    3.2690 hc        1 LIG      0.040533
     71 H18         1.6720   -6.8450    1.7350 hc        1 LIG      0.040533
     72 H19         4.5570   -5.8860    2.4360 h1        1 LIG      0.069700
     73 H20         3.5830   -6.8980   -0.0490 ho        1 LIG      0.412000
     74 H21         5.3100   -3.4530    2.0120 hn        1 LIG      0.375500
     75 H22         5.8410   -2.6200   -0.6300 h1        1 LIG      0.085700
     76 H23         7.2700   -3.4170   -0.0170 h1        1 LIG      0.085700
     77 H24         7.2970   -1.8870    1.9080 hc        1 LIG      0.071700
     78 H25         5.8690   -1.0890    1.2930 hc        1 LIG      0.071700
     79 H26         7.8440    0.7220    1.5390 hn        1 LIG      0.349500
     80 H27         8.3750    1.5540   -1.1050 h1        1 LIG      0.057200
     81 H28         9.8040    0.7580   -0.4910 h1        1 LIG      0.057200
     82 H29         9.8310    2.2890    1.4340 h1        1 LIG      0.063700
     83 H30         8.4030    3.0870    0.8190 h1        1 LIG      0.063700
     84 H31        11.1750    4.7110    1.4550 h1        1 LIG      0.045200
     85 H32         9.7460    5.5080    0.8410 h1        1 LIG      0.045200
@<TRIPOS>BOND
     1    1    2 ar  
     2    1    6 ar  
     3    2    3 ar  
     4    3    4 ar  
     5    4    5 ar  
     6    4   10 1   
     7    5    6 ar  
     8    5    8 1   
     9    6    7 1   
    10    8    9 2   
    11    9   10 1   
    12   10   11 1   
    13   11   12 1   
    14   11   21 1   
    15   12   13 1   
    16   12   14 1   
    17   14   15 1   
    18   14   20 1   
    19   15   16 1   
    20   16   17 1   
    21   16   18 1   
    22   16   19 1   
    23   20   21 1   
    24   20   22 1   
    25   22   23 1   
    26   23   24 1   
    27   24   25 1   
    28   24   26 1   
    29   24   27 1   
    30   27   28 1   
    31   28   29 1   
    32   28   30 1   
    33   28   31 1   
    34   31   33 1   
    35   32   33 1   
    36   32   34 1   
    37   32   35 1   
    38   32   36 1   
    39   36   37 1   
    40   36   38 1   
    41   38   39 2   
    42   38   40 1   
    43   40   41 1   
    44   41   42 1   
    45   42   43 1   
    46   43   44 2   
    47   43   45 1   
    48   45   46 1   
    49   46   47 1   
    50   47   48 1   
    51   48   49 1   
    52   49   50 1   
    53   50   51 1   
    54   50   52 1   
    55    2   53 1   
    56    7   54 1   
    57    7   55 1   
    58    9   56 1   
    59   11   57 1   
    60   12   58 1   
    61   13   59 1   
    62   14   60 1   
    63   20   61 1   
    64   22   62 1   
    65   22   63 1   
    66   33   64 1   
    67   33   65 1   
    68   34   66 1   
    69   34   67 1   
    70   34   68 1   
    71   35   69 1   
    72   35   70 1   
    73   35   71 1   
    74   36   72 1   
    75   37   73 1   
    76   40   74 1   
    77   41   75 1   
    78   41   76 1   
    79   42   77 1   
    80   42   78 1   
    81   45   79 1   
    82   46   80 1   
    83   46   81 1   
    84   47   82 1   
    85   47   83 1   
    86   49   84 1   
    87   49   85 1   
@<TRIPOS>SUBSTRUCTURE
     1 LIG         1 TEMP              0 ****  ****    0 ROOT
