@<TRIPOS>MOLECULE
AT3
   26    25     1     0     0
SMALL
bcc


@<TRIPOS>ATOM
      1 N          -2.4500    0.0500    0.0000 N.4       1 LIG     -0.602800
      2 C          -1.2470   -0.7940    0.0000 C.3       1 LIG      0.120800
      3 C1         -0.0010    0.0940    0.0000 C.3       1 LIG     -0.073300
      4 C2          2.6920    0.2630    0.0000 C.        1 LIG      0.586700
      5 O           2.3800    1.4350    0.0000 O.3       1 LIG     -0.563100
      6 C3          4.1480   -0.1290    0.0000 C.3       1 LIG     -0.196100
      7 C4         -2.4520    0.8980   -1.1990 C.3       1 LIG      0.086100
      8 C5         -3.6460   -0.8020    0.0000 C.3       1 LIG      0.086100
      9 C6         -2.4530    0.8980    1.1990 C.3       1 LIG      0.086100
     10 S           1.4800   -0.9460    0.0000 S.3       1 LIG     -0.175700
     11 H          -1.2450   -1.4120   -0.8740 H         1 LIG      0.108700
     12 H1         -1.2450   -1.4120    0.8740 H         1 LIG      0.108700
     13 H2         -0.0030    0.7120    0.8740 H         1 LIG      0.105700
     14 H3         -0.0030    0.7120   -0.8740 H         1 LIG      0.105700
     15 H4          4.7550    0.7520    0.0000 H         1 LIG      0.094033
     16 H5          4.3610   -0.7090   -0.8740 H         1 LIG      0.094033
     17 H6          4.3610   -0.7090    0.8740 H         1 LIG      0.094033
     18 H7         -2.4500    0.2800   -2.0730 H         1 LIG      0.103811
     19 H8         -1.5800    1.5180   -1.1990 H         1 LIG      0.103811
     20 H9         -3.3280    1.5130   -1.1990 H         1 LIG      0.103811
     21 H10        -3.6440   -1.4200   -0.8740 H         1 LIG      0.103811
     22 H11        -4.5220   -0.1870   -0.0000 H         1 LIG      0.103811
     23 H12        -3.6440   -1.4200    0.8740 H         1 LIG      0.103811
     24 H13        -1.5810    1.5190    1.1990 H         1 LIG      0.103811
     25 H14        -2.4510    0.2800    2.0730 H         1 LIG      0.103811
     26 H15        -3.3290    1.5130    1.1990 H         1 LIG      0.103811
@<TRIPOS>BOND
     1    1    2 1   
     2    1    7 1   
     3    1    8 1   
     4    1    9 1   
     5    2    3 1   
     6    3   10 1   
     7    4    5 2   
     8    4    6 1   
     9    4   10 1   
    10    2   11 1   
    11    2   12 1   
    12    3   13 1   
    13    3   14 1   
    14    6   15 1   
    15    6   16 1   
    16    6   17 1   
    17    7   18 1   
    18    7   19 1   
    19    7   20 1   
    20    8   21 1   
    21    8   22 1   
    22    8   23 1   
    23    9   24 1   
    24    9   25 1   
    25    9   26 1   
@<TRIPOS>SUBSTRUCTURE
     1 LIG         1 TEMP              0 ****  ****    0 ROOT
