@<TRIPOS>MOLECULE
78P
   35    37     1     0     0
SMALL
bcc


@<TRIPOS>ATOM
      1 C          -1.1620    0.1810   -0.0590 C.a       1 LIG     -0.019200
      2 C1         -2.5370   -0.0580    0.0730 C.a       1 LIG     -0.138600
      3 C2         -3.4150    1.0200    0.1740 C.a       1 LIG     -0.052000
      4 C3          1.0320    0.1810   -0.2760 C.c       1 LIG      0.313800
      5 C4         -3.0510   -1.4410    0.1060 C.        1 LIG      0.684700
      6 C5          2.4540   -0.2980   -0.4190 C.3       1 LIG      0.168900
      7 C6          4.2380   -0.9000    1.0120 C.3       1 LIG      0.114800
      8 C7          3.4180    0.9030   -0.3810 C.3       1 LIG     -0.093400
      9 C8         -2.9340    2.3160    0.1430 C.a       1 LIG     -0.149000
     10 C9         -1.5830    2.5640    0.0140 C.a       1 LIG     -0.034000
     11 C10        -0.6830    1.5010   -0.0890 C.a       1 LIG      0.050400
     12 N           0.6670    1.4280   -0.2230 N.d       1 LIG     -0.571100
     13 N1         -0.0570   -0.6290   -0.1720 N.a       1 LIG     -0.219300
     14 N2         -4.3740   -1.6650    0.2330 N.        1 LIG     -0.645000
     15 O          -2.2810   -2.3780    0.0170 O.3       1 LIG     -0.658100
     16 N3          2.8080   -1.1740    0.7190 N.4       1 LIG     -0.768000
     17 C11         4.3510    0.6340    0.8220 C.3       1 LIG     -0.097400
     18 C12         2.6220   -1.0590   -1.7350 C.3       1 LIG     -0.139100
     19 H          -4.4280    0.8500    0.2720 H         1 LIG      0.148000
     20 H1          4.4850   -1.1820    2.0140 H         1 LIG      0.113700
     21 H2          4.9080   -1.4510    0.3850 H         1 LIG      0.113700
     22 H3          2.8760    1.8150   -0.2390 H         1 LIG      0.098200
     23 H4          3.9640    1.0080   -1.2960 H         1 LIG      0.098200
     24 H5         -3.5930    3.1070    0.2170 H         1 LIG      0.158000
     25 H6         -1.2370    3.5360   -0.0060 H         1 LIG      0.163000
     26 H7         -0.0540   -1.6130   -0.1770 H         1 LIG      0.352700
     27 H8         -4.9970   -0.9060    0.3050 H         1 LIG      0.326000
     28 H9         -4.7170   -2.5870    0.2540 H         1 LIG      0.326000
     29 H10         2.6790   -2.1540    0.4670 H         1 LIG      0.457800
     30 H11         2.2170   -0.9920    1.5300 H         1 LIG      0.457800
     31 H12         5.3580    0.9210    0.6000 H         1 LIG      0.094700
     32 H13         4.0830    1.1890    1.6970 H         1 LIG      0.094700
     33 H14         3.6340   -1.3940   -1.8260 H         1 LIG      0.083700
     34 H15         2.3850   -0.4120   -2.5540 H         1 LIG      0.083700
     35 H16         1.9640   -1.9030   -1.7450 H         1 LIG      0.083700
@<TRIPOS>BOND
     1    1    2 ar  
     2    2    3 ar  
     3    2    5 1   
     4    4   13 1   
     5    5   15 2   
     6    6    8 1   
     7    6   16 1   
     8    6    4 1   
     9    7   17 1   
    10    8   17 1   
    11    9    3 ar  
    12   10    9 ar  
    13   11   10 ar  
    14   11    1 ar  
    15   12    4 2   
    16   12   11 1   
    17   13    1 1   
    18   14    5 1   
    19   16    7 1   
    20   18    6 1   
    21    3   19 1   
    22    7   20 1   
    23    7   21 1   
    24    8   22 1   
    25    8   23 1   
    26    9   24 1   
    27   10   25 1   
    28   13   26 1   
    29   14   27 1   
    30   14   28 1   
    31   16   29 1   
    32   16   30 1   
    33   17   31 1   
    34   17   32 1   
    35   18   33 1   
    36   18   34 1   
    37   18   35 1   
@<TRIPOS>SUBSTRUCTURE
     1 LIG         1 TEMP              0 ****  ****    0 ROOT
