@<TRIPOS>MOLECULE
OSE
   17    16     1     0     0
SMALL
bcc


@<TRIPOS>ATOM
      1 N1         -1.0270   -2.0410   -1.5350 n4        1 <1>     -0.817600
      2 C1         -0.4690   -2.1170   -0.2070 c3        1 <1>     -0.068500
      3 C2         -0.5640   -0.7830    0.5190 c3        1 <1>      0.209400
      4 O1         -0.0390   -0.9280    1.8330 os        1 <1>     -0.631500
      5 C3         -1.2340   -3.1870    0.5430 c         1 <1>      0.921600
      6 O2         -2.4300   -3.4150    0.4200 o         1 <1>     -0.800300
      7 S1         -0.0160    0.3560    2.8430 s6        1 <1>      1.710300
      8 O3          0.7910    1.3880    2.2190 o         1 <1>     -0.757200
      9 O4         -1.3730    0.6480    3.2650 o         1 <1>     -0.757200
     10 O5          0.8060   -0.1920    4.1410 o         1 <1>     -0.757200
     11 O6         -0.4430   -3.8520    1.4250 o         1 <1>     -0.800300
     12 H1         -0.5330   -1.3270   -2.0710 hn        1 <1>      0.451133
     13 H2         -2.0160   -1.7980   -1.4750 hn        1 <1>      0.451133
     14 H3         -0.9260   -2.9440   -1.9980 hn        1 <1>      0.451133
     15 H4          0.5720   -2.3600   -0.2630 hx        1 <1>      0.080700
     16 H5         -1.5880   -0.4780    0.5740 h1        1 <1>      0.057700
     17 H6         -0.0030   -0.0430   -0.0130 h1        1 <1>      0.057700
@<TRIPOS>BOND
     1    1    2 1   
     2    2    3 1   
     3    2    5 1   
     4    3    4 1   
     5    4    7 1   
     6    5    6 1   
     7    5   11 1   
     8    7    8 1   
     9    7    9 1   
    10    7   10 1   
    11    1   12 1   
    12    1   13 1   
    13    1   14 1   
    14    2   15 1   
    15    3   16 1   
    16    3   17 1   
@<TRIPOS>SUBSTRUCTURE
     1 <1>         1 TEMP              0 ****  ****    0 ROOT
