@<TRIPOS>MOLECULE
EK6
   66    69     1     0     0
SMALL
bcc


@<TRIPOS>ATOM
      1 Cl         -6.3910    0.1600    0.5600 cl        1 LIG     -0.098400
      2 C          -5.0690   -0.6160   -0.2570 ca        1 LIG      0.041400
      3 C1         -4.3560    0.0710   -1.2240 ca        1 LIG     -0.220300
      4 C2         -4.7330    1.4880   -1.5700 c3        1 LIG      0.188100
      5 N          -4.1780    2.4020   -0.5630 n4        1 LIG     -0.765000
      6 C3         -4.5270    3.7960   -0.8690 c3        1 LIG      0.035800
      7 C4         -3.9420    4.7030    0.1840 c         1 LIG      0.614100
      8 O          -3.3000    4.2350    1.0950 o         1 LIG     -0.522000
      9 O1         -4.1330    6.0290    0.1090 os        1 LIG     -0.407900
     10 C5         -3.5410    6.8410    1.1570 c3        1 LIG      0.144400
     11 C6         -3.8630    8.3150    0.9040 c3        1 LIG     -0.109100
     12 C7         -4.7270   -1.9150    0.0640 ca        1 LIG     -0.127000
     13 C8         -3.6660   -2.5360   -0.5920 ca        1 LIG      0.109000
     14 C9         -2.9550   -1.8400   -1.5690 ca        1 LIG     -0.137000
     15 C10        -3.2980   -0.5390   -1.8740 ca        1 LIG     -0.065000
     16 C11        -3.2940   -3.9300   -0.2510 cc        1 LIG     -0.257300
     17 C12        -2.0440   -4.3710    0.1600 cd        1 LIG      0.048700
     18 N1         -2.1430   -5.7140    0.3660 na        1 LIG     -0.000600
     19 N2         -3.4570   -6.1020    0.0810 nd        1 LIG     -0.486800
     20 C13        -4.1440   -5.0510   -0.2800 cc        1 LIG      0.322200
     21 C14        -0.8340   -3.5410    0.3410 cd        1 LIG     -0.163000
     22 C15         0.4630   -3.8390   -0.1260 cd        1 LIG     -0.101000
     23 CA          1.2750   -2.8090    0.2570 cc        1 LIG     -0.186900
     24 N3          0.5120   -1.8920    0.9450 na        1 LIG     -0.149100
     25 C16        -0.7640   -2.3270    0.9920 cc        1 LIG     -0.094300
     26 C17         2.7120   -2.6990   -0.0160 c         1 LIG      0.696700
     27 O2          3.2820   -3.5770   -0.6360 o         1 LIG     -0.588100
     28 N4          3.4010   -1.6260    0.4210 n         1 LIG     -0.552900
     29 C25         4.8360   -1.5160    0.1480 c3        1 LIG      0.101000
     30 C18         5.6190   -2.2730    1.2240 c3        1 LIG      0.110400
     31 O3          5.4250   -1.6380    2.4890 oh        1 LIG     -0.600800
     32 C19         5.2400   -0.0650    0.1600 ca        1 LIG     -0.109300
     33 C20         6.1450    0.4080   -0.7720 ca        1 LIG     -0.091000
     34 C21         6.5170    1.7400   -0.7610 ca        1 LIG     -0.022600
     35 Cl1         7.6530    2.3340   -1.9320 cl        1 LIG     -0.053400
     36 C22         5.9820    2.6000    0.1840 ca        1 LIG      0.143900
     37 F           6.3440    3.9020    0.1960 f         1 LIG     -0.116900
     38 C23         5.0760    2.1250    1.1170 ca        1 LIG     -0.158000
     39 C24         4.7020    0.7940    1.1000 ca        1 LIG     -0.108000
     40 H          -5.7990    1.5800   -1.5860 hx        1 LIG      0.108200
     41 H3         -4.3390    1.7370   -2.5330 hx        1 LIG      0.108200
     42 H4         -4.5540    2.1570    0.3530 hn        1 LIG      0.466800
     43 H5         -3.1620    2.3130   -0.5670 hn        1 LIG      0.466800
     44 H6         -5.5920    3.9030   -0.8800 hx        1 LIG      0.137700
     45 H7         -4.1320    4.0610   -1.8270 hx        1 LIG      0.137700
     46 H8         -2.4800    6.7030    1.1590 h1        1 LIG      0.068700
     47 H9         -3.9410    6.5460    2.1050 h1        1 LIG      0.068700
     48 H10        -3.4630    8.6100   -0.0440 hc        1 LIG      0.064700
     49 H11        -3.4270    8.9130    1.6770 hc        1 LIG      0.064700
     50 H12        -4.9240    8.4530    0.9020 hc        1 LIG      0.064700
     51 H13        -5.2560   -2.4250    0.7880 ha        1 LIG      0.170000
     52 H14        -2.1730   -2.2980   -2.0630 ha        1 LIG      0.176000
     53 H15        -2.7640   -0.0200   -2.5880 ha        1 LIG      0.147000
     54 H16        -1.4170   -6.3080    0.6640 hn        1 LIG      0.336700
     55 H17        -5.1420   -5.0440   -0.5420 h4        1 LIG      0.051100
     56 H18         0.7460   -4.6770   -0.6570 ha        1 LIG      0.180000
     57 H19         0.8450   -1.0530    1.3390 hn        1 LIG      0.313700
     58 H20        -1.5540   -1.8350    1.4390 h4        1 LIG      0.186000
     59 H21         2.9400   -0.9160    0.9240 hn        1 LIG      0.318500
     60 HA          5.0500   -1.9370   -0.8120 h1        1 LIG      0.101700
     61 H1          6.6600   -2.2670    0.9780 h1        1 LIG      0.066700
     62 H2          5.2700   -3.2830    1.2750 h1        1 LIG      0.066700
     63 H22         5.7410   -0.7220    2.4430 ho        1 LIG      0.408000
     64 H23         6.5430   -0.2330   -1.4760 ha        1 LIG      0.158000
     65 H24         4.6800    2.7640    1.8240 ha        1 LIG      0.159000
     66 H25         4.0200    0.4410    1.7900 ha        1 LIG      0.138000
@<TRIPOS>BOND
     1    2   12 ar  
     2    2    1 1   
     3    3    2 ar  
     4    4    3 1   
     5    5    6 1   
     6    5    4 1   
     7    6    7 1   
     8    7    8 2   
     9    9   10 1   
    10    9    7 1   
    11   11   10 1   
    12   13   16 1   
    13   13   12 ar  
    14   14   13 ar  
    15   15   14 ar  
    16   15    3 ar  
    17   16   17 ar  
    18   17   18 ar  
    19   17   21 1   
    20   19   18 ar  
    21   20   16 ar  
    22   20   19 ar  
    23   21   25 ar  
    24   22   21 ar  
    25   22   23 ar  
    26   23   26 1   
    27   23   24 ar  
    28   25   24 ar  
    29   26   27 2   
    30   28   26 1   
    31   29   28 1   
    32   29   32 1   
    33   30   29 1   
    34   31   30 1   
    35   32   33 ar  
    36   32   39 ar  
    37   33   34 ar  
    38   34   35 1   
    39   34   36 ar  
    40   36   37 1   
    41   38   36 ar  
    42   39   38 ar  
    43    4   40 1   
    44    4   41 1   
    45    5   42 1   
    46    5   43 1   
    47    6   44 1   
    48    6   45 1   
    49   10   46 1   
    50   10   47 1   
    51   11   48 1   
    52   11   49 1   
    53   11   50 1   
    54   12   51 1   
    55   14   52 1   
    56   15   53 1   
    57   18   54 1   
    58   20   55 1   
    59   22   56 1   
    60   24   57 1   
    61   25   58 1   
    62   28   59 1   
    63   29   60 1   
    64   30   61 1   
    65   30   62 1   
    66   31   63 1   
    67   33   64 1   
    68   38   65 1   
    69   39   66 1   
@<TRIPOS>SUBSTRUCTURE
     1 LIG         1 TEMP              0 ****  ****    0 ROOT
