@<TRIPOS>MOLECULE
GNP
   46    48     1     0     0
SMALL
bcc


@<TRIPOS>ATOM
      1 P          -1.2310   -0.2950    7.2120 p5        1 LIG      1.371800
      2 O          -1.7590    1.0780    7.0630 o         1 LIG     -0.897167
      3 O1         -2.1580   -1.1180    8.2400 o         1 LIG     -0.897167
      4 O2          0.2740   -0.2340    7.7780 o         1 LIG     -0.897167
      5 N          -1.2360   -1.0640    5.7140 n3        1 LIG     -1.023400
      6 P1         -0.2520   -0.1510    4.6990 p5        1 LIG      1.825400
      7 O3         -0.7950    1.2210    4.5890 o         1 LIG     -0.949300
      8 O4          1.2370   -0.0910    5.3070 oh        1 LIG     -0.795400
      9 O5         -0.2090   -0.8300    3.2400 os        1 LIG     -0.739800
     10 P2          0.7440    0.0890    2.3260 p5        1 LIG      1.622800
     11 O6          0.1850    1.4580    2.2520 o         1 LIG     -0.932000
     12 O7          2.2160    0.1450    2.9740 o         1 LIG     -0.932000
     13 O8          0.8320   -0.5340    0.8450 os        1 LIG     -0.546200
     14 C           1.6880    0.3220    0.0860 c3        1 LIG      0.267400
     15 C1          1.8150   -0.2170   -1.3390 c3        1 LIG      0.043100
     16 O9          0.5240   -0.2370   -1.9860 os        1 LIG     -0.434600
     17 C2          2.6740    0.7340   -2.2020 c3        1 LIG      0.138100
     18 O10         4.0180    0.2580   -2.2850 oh        1 LIG     -0.690800
     19 C3          1.9970    0.6950   -3.5920 c3        1 LIG      0.101100
     20 O11         2.9040    0.1960   -4.5770 oh        1 LIG     -0.625800
     21 C4          0.8080   -0.2720   -3.4020 c3        1 LIG      0.214800
     22 N1         -0.3520    0.1880   -4.1660 na        1 LIG     -0.170900
     23 C5         -1.3150    1.0510   -3.7300 cc        1 LIG      0.455400
     24 N2         -2.1960    1.2400   -4.6680 nd        1 LIG     -0.636000
     25 C6         -1.8530    0.5120   -5.7590 cd        1 LIG      0.198800
     26 C7         -2.4230    0.3300   -7.0410 c         1 LIG      0.643000
     27 O12        -3.4530    0.9020   -7.3540 o         1 LIG     -0.653500
     28 N3         -1.7940   -0.4890   -7.9120 n         1 LIG     -0.494400
     29 C8         -0.6460   -1.1290   -7.5490 cd        1 LIG      0.575800
     30 N4         -0.0330   -1.9600   -8.4530 nh        1 LIG     -0.864800
     31 N5         -0.1070   -0.9680   -6.3610 nc        1 LIG     -0.603100
     32 C9         -0.6700   -0.1680   -5.4490 cc        1 LIG      0.044800
     33 H          -2.1850   -1.1030    5.3420 hn        1 LIG      0.411800
     34 H1          1.2110    0.3180    6.1860 ho        1 LIG      0.421000
     35 H2          2.6550    0.3550    0.5420 h1        1 LIG     -0.027300
     36 H3          1.2730    1.3080    0.0590 h1        1 LIG     -0.027300
     37 H4          2.2460   -1.1940   -1.2630 h1        1 LIG      0.087700
     38 H5          2.7280    1.7230   -1.7980 h1        1 LIG      0.119700
     39 H6          4.0210   -0.6410   -2.6480 ho        1 LIG      0.521000
     40 H7          1.6890    1.6620   -3.9300 h1        1 LIG      0.062700
     41 H8          3.2140   -0.6850   -4.3140 ho        1 LIG      0.433000
     42 H9          1.0330   -1.2600   -3.7450 h2        1 LIG      0.077700
     43 H10        -1.3400    1.4880   -2.7960 h5        1 LIG      0.125100
     44 H11        -2.1660   -0.6240   -8.8130 hn        1 LIG      0.320500
     45 H12        -0.4250   -2.0900   -9.3470 hn        1 LIG      0.375800
     46 H13         0.7990   -2.4260   -8.2080 hn        1 LIG      0.375800
@<TRIPOS>BOND
     1    1    2 1   
     2    1    3 1   
     3    1    4 1   
     4    1    5 1   
     5    5    6 1   
     6    6    7 2   
     7    6    8 1   
     8    6    9 1   
     9    9   10 1   
    10   10   11 1   
    11   10   12 1   
    12   10   13 1   
    13   13   14 1   
    14   14   15 1   
    15   15   16 1   
    16   15   17 1   
    17   16   21 1   
    18   17   18 1   
    19   17   19 1   
    20   19   20 1   
    21   19   21 1   
    22   21   22 1   
    23   22   23 ar  
    24   22   32 ar  
    25   23   24 ar  
    26   24   25 ar  
    27   25   26 1   
    28   25   32 ar  
    29   26   27 2   
    30   26   28 1   
    31   28   29 1   
    32   29   30 1   
    33   29   31 2   
    34   31   32 1   
    35    5   33 1   
    36    8   34 1   
    37   14   35 1   
    38   14   36 1   
    39   15   37 1   
    40   17   38 1   
    41   18   39 1   
    42   19   40 1   
    43   20   41 1   
    44   21   42 1   
    45   23   43 1   
    46   28   44 1   
    47   30   45 1   
    48   30   46 1   
@<TRIPOS>SUBSTRUCTURE
     1 LIG         1 TEMP              0 ****  ****    0 ROOT
