@<TRIPOS>MOLECULE
SPE
   41    40     1     0     0
SMALL
bcc


@<TRIPOS>ATOM
      1 N          -0.2440   -0.0020    7.3400 N.4       1 LIG     -0.837600
      2 C           0.5430   -0.0360    6.1010 C.3       1 LIG      0.105800
      3 C1         -0.3970    0.0120    4.8960 C.3       1 LIG     -0.138400
      4 C2          0.4230   -0.0220    3.6050 C.3       1 LIG      0.110800
      5 N1         -0.4800    0.0240    2.4480 N.4       1 LIG     -0.765000
      6 C3          0.3670   -0.0120    1.2490 C.3       1 LIG      0.110800
      7 C4         -0.5150    0.0330    0.0000 C.3       1 LIG     -0.137400
      8 C5          0.3670   -0.0030   -1.2490 C.3       1 LIG      0.110800
      9 N2         -0.4790    0.0400   -2.4480 N.4       1 LIG     -0.765000
     10 C6          0.4240    0.0010   -3.6050 C.3       1 LIG      0.110800
     11 C7         -0.3960    0.0440   -4.8960 C.3       1 LIG     -0.138400
     12 C8          0.5450    0.0030   -6.1010 C.3       1 LIG      0.105800
     13 N3         -0.2420    0.0440   -7.3400 N.4       1 LIG     -0.837600
     14 H           0.3840   -0.0340    8.1430 H         1 LIG      0.487133
     15 H1         -0.8710   -0.8060    7.3670 H         1 LIG      0.487133
     16 H2         -0.7920    0.8580    7.3710 H         1 LIG      0.487133
     17 H3          1.1180   -0.9380    6.0690 H         1 LIG      0.132700
     18 H4          1.2000    0.8080    6.0740 H         1 LIG      0.132700
     19 H5         -0.9730    0.9130    4.9290 H         1 LIG      0.099700
     20 H6         -1.0530   -0.8330    4.9230 H         1 LIG      0.099700
     21 H7          0.9990   -0.9230    3.5720 H         1 LIG      0.129700
     22 H8          1.0790    0.8230    3.5780 H         1 LIG      0.129700
     23 H9         -1.0290    0.8830    2.4650 H         1 LIG      0.468800
     24 H10        -1.1320   -0.7610    2.4600 H         1 LIG      0.468800
     25 H11         0.9430   -0.9130    1.2460 H         1 LIG      0.129700
     26 H12         1.0250    0.8320    1.2520 H         1 LIG      0.129700
     27 H13        -1.0920    0.9340    0.0030 H         1 LIG      0.099700
     28 H14        -1.1720   -0.8110   -0.0030 H         1 LIG      0.099700
     29 H15         0.9440   -0.9040   -1.2520 H         1 LIG      0.129700
     30 H16         1.0240    0.8420   -1.2460 H         1 LIG      0.129700
     31 H17        -1.0280    0.8990   -2.4600 H         1 LIG      0.468800
     32 H18        -1.1300   -0.7450   -2.4650 H         1 LIG      0.468800
     33 H19         0.9990   -0.9010   -3.5780 H         1 LIG      0.129700
     34 H20         1.0810    0.8450   -3.5720 H         1 LIG      0.129700
     35 H21        -0.9710    0.9460   -4.9230 H         1 LIG      0.099700
     36 H22        -1.0530   -0.8000   -4.9290 H         1 LIG      0.099700
     37 H23         1.1200   -0.8990   -6.0740 H         1 LIG      0.132700
     38 H24         1.2020    0.8470   -6.0690 H         1 LIG      0.132700
     39 H25        -0.8690   -0.7600   -7.3720 H         1 LIG      0.487133
     40 H26         0.3860    0.0170   -8.1430 H         1 LIG      0.487133
     41 H27        -0.7900    0.9040   -7.3660 H         1 LIG      0.487133
@<TRIPOS>BOND
     1    1    2 1   
     2    2    3 1   
     3    3    4 1   
     4    4    5 1   
     5    5    6 1   
     6    6    7 1   
     7    7    8 1   
     8    8    9 1   
     9    9   10 1   
    10   10   11 1   
    11   11   12 1   
    12   12   13 1   
    13    1   14 1   
    14    1   15 1   
    15    1   16 1   
    16    2   17 1   
    17    2   18 1   
    18    3   19 1   
    19    3   20 1   
    20    4   21 1   
    21    4   22 1   
    22    5   23 1   
    23    5   24 1   
    24    6   25 1   
    25    6   26 1   
    26    7   27 1   
    27    7   28 1   
    28    8   29 1   
    29    8   30 1   
    30    9   31 1   
    31    9   32 1   
    32   10   33 1   
    33   10   34 1   
    34   11   35 1   
    35   11   36 1   
    36   12   37 1   
    37   12   38 1   
    38   13   39 1   
    39   13   40 1   
    40   13   41 1   
@<TRIPOS>SUBSTRUCTURE
     1 LIG         1 TEMP              0 ****  ****    0 ROOT
