@<TRIPOS>MOLECULE
TCP
   34    35     1     0     0
SMALL
bcc


@<TRIPOS>ATOM
      1 C           2.5820   -0.0380   -4.6060 c3        1 LIG      0.117700
      2 O           1.6950   -0.7140   -3.7120 os        1 LIG     -0.418600
      3 C1          0.6320    0.1940   -3.4200 c3        1 LIG      0.116400
      4 C2         -0.3570   -0.4700   -2.4610 c3        1 LIG      0.102100
      5 O1          0.2750   -0.7590   -1.1970 os        1 LIG     -0.414600
      6 C3         -1.4950    0.5110   -2.0840 c3        1 LIG      0.124100
      7 O2         -2.5530    0.4690   -3.0430 oh        1 LIG     -0.581800
      8 C4         -1.9650   -0.0480   -0.7170 c3        1 LIG     -0.137400
      9 C5         -0.7730   -0.8890   -0.2220 c3        1 LIG      0.306500
     10 N          -0.3110   -0.3900    1.0750 n         1 LIG     -0.381000
     11 C6          0.1150    0.8800    1.1860 c         1 LIG      0.810500
     12 O3          0.1090    1.6020    0.2080 o         1 LIG     -0.658500
     13 N1          0.5400    1.3660    2.3670 n         1 LIG     -0.585500
     14 C7          0.5530    0.5790    3.4610 c         1 LIG      0.715700
     15 O4          0.9410    1.0160    4.5290 o         1 LIG     -0.605500
     16 C8          0.1100   -0.7610    3.3570 cc        1 LIG     -0.247400
     17 C9          0.1150   -1.6630    4.5650 c3        1 LIG     -0.032900
     18 C10        -0.3140   -1.2220    2.1610 cd        1 LIG      0.039600
     19 H           3.3990   -0.6830   -4.8540 h1        1 LIG      0.033700
     20 H1          2.9570    0.8470   -4.1350 h1        1 LIG      0.033700
     21 H2          2.0540    0.2290   -5.4980 h1        1 LIG      0.033700
     22 H3          0.1280    0.4570   -4.3270 h1        1 LIG      0.047200
     23 H4          1.0320    1.0760   -2.9660 h1        1 LIG      0.047200
     24 H5         -0.7120   -1.3480   -2.9600 h1        1 LIG      0.092700
     25 H6         -1.1860    1.5350   -2.0510 h1        1 LIG      0.115700
     26 H7         -2.8820   -0.4400   -3.1220 ho        1 LIG      0.400000
     27 H8         -2.8360   -0.6580   -0.8360 hc        1 LIG      0.082700
     28 H9         -2.2340    0.7260   -0.0290 hc        1 LIG      0.082700
     29 H10        -1.0570   -1.9140   -0.1020 h2        1 LIG      0.083700
     30 H11         0.8430    2.3000    2.4320 hn        1 LIG      0.352500
     31 H12         0.4820   -1.1220    5.4120 hc        1 LIG      0.053033
     32 H13         0.7480   -2.5060    4.3780 hc        1 LIG      0.053033
     33 H14        -0.8810   -2.0020    4.7610 hc        1 LIG      0.053033
     34 H15        -0.6390   -2.1970    2.0670 h4        1 LIG      0.166000
@<TRIPOS>BOND
     1    1    2 1   
     2    2    3 1   
     3    3    4 1   
     4    4    5 1   
     5    4    6 1   
     6    5    9 1   
     7    6    7 1   
     8    6    8 1   
     9    8    9 1   
    10    9   10 1   
    11   10   11 1   
    12   10   18 1   
    13   11   12 2   
    14   11   13 1   
    15   13   14 1   
    16   14   15 2   
    17   14   16 1   
    18   16   17 1   
    19   16   18 2   
    20    1   19 1   
    21    1   20 1   
    22    1   21 1   
    23    3   22 1   
    24    3   23 1   
    25    4   24 1   
    26    6   25 1   
    27    7   26 1   
    28    8   27 1   
    29    8   28 1   
    30    9   29 1   
    31   13   30 1   
    32   17   31 1   
    33   17   32 1   
    34   17   33 1   
    35   18   34 1   
@<TRIPOS>SUBSTRUCTURE
     1 LIG         1 TEMP              0 ****  ****    0 ROOT
