@<TRIPOS>MOLECULE
C2G
   49    50     1     0     0
SMALL
bcc


@<TRIPOS>ATOM
      1 N           0.7470    0.5460   -5.0400 n         1 LIG     -0.380000
      2 C           1.2980   -0.6730   -4.9060 c         1 LIG      0.829900
      3 N1          2.4270   -0.9900   -5.5380 nc        1 LIG     -0.758100
      4 C1          3.0380   -0.1080   -6.3180 cd        1 LIG      0.718500
      5 C2          2.4900    1.1800   -6.4740 cd        1 LIG     -0.432600
      6 C3          1.3380    1.4860   -5.8300 cc        1 LIG      0.090600
      7 O           0.7560   -1.5020   -4.1950 o         1 LIG     -0.673500
      8 N2          4.2040   -0.4470   -6.9650 nh        1 LIG     -0.904800
      9 C4         -0.4940    0.8660   -4.3320 c3        1 LIG      0.255500
     10 C5         -1.6150   -0.1140   -4.7430 c3        1 LIG      0.111100
     11 O1         -2.4590    0.4680   -5.7380 oh        1 LIG     -0.600800
     12 C6         -2.4040   -0.3490   -3.4330 c3        1 LIG      0.105100
     13 C7         -1.6670    0.5190   -2.3900 c3        1 LIG      0.065100
     14 O2         -0.3290    0.6680   -2.9110 os        1 LIG     -0.426600
     15 O3         -3.7580    0.0820   -3.5790 oh        1 LIG     -0.655800
     16 C8         -1.6350   -0.1860   -1.0330 c3        1 LIG      0.170400
     17 O4         -0.8880    0.6010   -0.1040 os        1 LIG     -0.591200
     18 P          -0.8950   -0.1960    1.2940 p5        1 LIG      1.606800
     19 O5         -0.2670   -1.5230    1.1070 o         1 LIG     -0.876000
     20 O6         -2.4130   -0.3860    1.7960 o         1 LIG     -0.876000
     21 O7         -0.0660    0.6390    2.3930 os        1 LIG     -0.833800
     22 P1         -0.1140   -0.2120    3.7580 p5        1 LIG      1.599800
     23 O8          0.5000   -1.5390    3.5340 o         1 LIG     -0.880000
     24 O9         -1.6450   -0.4020    4.2190 o         1 LIG     -0.880000
     25 O10         0.6980    0.5680    4.9070 os        1 LIG     -0.580200
     26 O11         2.0000    0.2410    9.5490 oh        1 LIG     -0.640800
     27 C9          1.2920   -0.4020    8.4870 c3        1 LIG      0.102400
     28 C10         1.3770    0.4560    7.2240 c3        1 LIG      0.100100
     29 O12         0.7930    1.7350    7.4770 oh        1 LIG     -0.637800
     30 C11         0.6190   -0.2330    6.0870 c3        1 LIG      0.180400
     31 H           2.9590    1.8800   -7.0700 ha        1 LIG      0.184000
     32 H1          0.9130    2.4200   -5.9360 h4        1 LIG      0.254000
     33 H2          4.5850   -1.3480   -6.8540 hn        1 LIG      0.401800
     34 H3          4.6580    0.2120   -7.5390 hn        1 LIG      0.401800
     35 H4         -0.7360    1.8800   -4.5720 h2        1 LIG      0.116700
     36 H5         -1.2340   -1.0200   -5.1670 h1        1 LIG      0.084700
     37 H6         -2.8320    1.2970   -5.4010 ho        1 LIG      0.421000
     38 H7         -2.4440   -1.3810   -3.1550 h1        1 LIG      0.096700
     39 H8         -2.1490    1.4620   -2.2370 h1        1 LIG      0.077700
     40 H9         -3.7740    1.0180   -3.8320 ho        1 LIG      0.490000
     41 H10        -1.1730   -1.1450   -1.1400 h1        1 LIG      0.053700
     42 H11        -2.6350   -0.3100   -0.6720 h1        1 LIG      0.053700
     43 H12         1.9460   -0.3030   10.3500 ho        1 LIG      0.426000
     44 H13         0.2660   -0.5260    8.7660 h1        1 LIG      0.028200
     45 H14         1.7280   -1.3600    8.2970 h1        1 LIG      0.028200
     46 H15         2.4030    0.5800    6.9460 h1        1 LIG      0.054700
     47 H16        -0.1370    1.6220    7.7290 ho        1 LIG      0.471000
     48 H17         1.0550   -1.1910    5.8970 h1        1 LIG      0.023200
     49 H18        -0.4070   -0.3560    6.3660 h1        1 LIG      0.023200
@<TRIPOS>BOND
     1    1    2 1   
     2    1    6 1   
     3    1    9 1   
     4    2    3 1   
     5    2    7 2   
     6    3    4 2   
     7    4    5 1   
     8    4    8 1   
     9    5    6 2   
    10    9   10 1   
    11    9   14 1   
    12   10   11 1   
    13   10   12 1   
    14   12   13 1   
    15   12   15 1   
    16   13   14 1   
    17   13   16 1   
    18   16   17 1   
    19   17   18 1   
    20   18   19 1   
    21   18   20 1   
    22   18   21 1   
    23   21   22 1   
    24   22   23 1   
    25   22   24 1   
    26   22   25 1   
    27   25   30 1   
    28   26   27 1   
    29   27   28 1   
    30   28   29 1   
    31   28   30 1   
    32    5   31 1   
    33    6   32 1   
    34    8   33 1   
    35    8   34 1   
    36    9   35 1   
    37   10   36 1   
    38   11   37 1   
    39   12   38 1   
    40   13   39 1   
    41   15   40 1   
    42   16   41 1   
    43   16   42 1   
    44   26   43 1   
    45   27   44 1   
    46   27   45 1   
    47   28   46 1   
    48   29   47 1   
    49   30   48 1   
    50   30   49 1   
@<TRIPOS>SUBSTRUCTURE
     1 LIG         1 TEMP              0 ****  ****    0 ROOT
