@<TRIPOS>MOLECULE
RAL
   62    66     1     0     0
SMALL
bcc


@<TRIPOS>ATOM
      1 C           2.4440    0.8250   -3.6100 ca        1 LIG     -0.059000
      2 C1          3.4780    0.3980   -4.4010 ca        1 LIG     -0.200000
      3 C2          3.3480   -0.7220   -5.2150 ca        1 LIG      0.137100
      4 O           4.3850   -1.1290   -5.9940 oh        1 LIG     -0.490100
      5 C3          2.1500   -1.4190   -5.2250 ca        1 LIG     -0.128000
      6 C4          1.1060   -0.9940   -4.4300 ca        1 LIG     -0.054100
      7 S          -0.5420   -1.5900   -4.1610 ss        1 LIG      0.069500
      8 C5         -1.0960   -0.3820   -2.9750 cc        1 LIG      0.011400
      9 C6         -2.4110   -0.2840   -2.3140 ca        1 LIG     -0.092800
     10 C7         -2.9690   -1.4060   -1.6940 ca        1 LIG     -0.075000
     11 C8         -4.1970   -1.3100   -1.0780 ca        1 LIG     -0.187000
     12 C9         -4.8810   -0.1000   -1.0730 ca        1 LIG      0.140100
     13 O1         -6.0920   -0.0100   -0.4640 oh        1 LIG     -0.490100
     14 C10        -4.3330    1.0150   -1.6930 ca        1 LIG     -0.187000
     15 C11        -3.1030    0.9300   -2.3070 ca        1 LIG     -0.075000
     16 C12         1.2110    0.1350   -3.5980 ca        1 LIG     -0.095800
     17 C13         0.0050    0.4490   -2.8260 cd        1 LIG     -0.165400
     18 C14        -0.0330    1.6000   -1.9230 c         1 LIG      0.616900
     19 O2         -0.3920    2.6870   -2.3380 o         1 LIG     -0.508100
     20 C15         0.3620    1.4420   -0.5090 ca        1 LIG     -0.174600
     21 C16         0.4310    2.5590    0.3260 ca        1 LIG     -0.041000
     22 C17         0.8000    2.4080    1.6450 ca        1 LIG     -0.182000
     23 C18         1.1030    1.1470    2.1430 ca        1 LIG      0.117100
     24 C19         1.0340    0.0330    1.3150 ca        1 LIG     -0.182000
     25 C20         0.6610    0.1750   -0.0020 ca        1 LIG     -0.041000
     26 O3          1.4660    1.0020    3.4430 os        1 LIG     -0.376900
     27 C21         1.8280   -0.3680    3.6210 c3        1 LIG      0.109400
     28 C22         2.3080   -0.5870    5.0570 c3        1 LIG      0.103800
     29 N           1.2300   -0.2400    5.9920 n4        1 LIG     -0.683400
     30 C23         1.7520   -0.4710    7.3430 c3        1 LIG      0.112800
     31 C24         0.6770   -0.1370    8.3780 c3        1 LIG     -0.106400
     32 C25        -0.5300   -1.0550    8.1650 c3        1 LIG     -0.098400
     33 C26        -1.0120   -0.9150    6.7180 c3        1 LIG     -0.106400
     34 C27         0.1510   -1.2090    5.7690 c3        1 LIG      0.112800
     35 H           2.5670    1.6600   -3.0160 ha        1 LIG      0.141000
     36 H1          4.3700    0.9170   -4.3930 ha        1 LIG      0.140000
     37 H2          5.1930   -0.6550   -5.9840 ho        1 LIG      0.425000
     38 H3          2.0400   -2.2520   -5.8240 ha        1 LIG      0.163000
     39 H4         -2.4620   -2.3050   -1.6980 ha        1 LIG      0.148500
     40 H5         -4.6100   -2.1370   -0.6200 ha        1 LIG      0.150000
     41 H6         -6.4630   -0.7620   -0.0450 ho        1 LIG      0.424000
     42 H7         -4.8480    1.9090   -1.6940 ha        1 LIG      0.150000
     43 H8         -2.6930    1.7610   -2.7610 ha        1 LIG      0.148500
     44 H9          0.2060    3.4960   -0.0440 ha        1 LIG      0.168500
     45 H10         0.8510    3.2320    2.2640 ha        1 LIG      0.144500
     46 H11         1.2630   -0.9020    1.6880 ha        1 LIG      0.144500
     47 H12         0.6020   -0.6530   -0.6150 ha        1 LIG      0.168500
     48 H13         2.6140   -0.6210    2.9400 h1        1 LIG      0.079700
     49 H14         0.9780   -0.9890    3.4310 h1        1 LIG      0.079700
     50 H15         3.1590    0.0340    5.2470 hx        1 LIG      0.109200
     51 H16         2.5790   -1.6140    5.1900 hx        1 LIG      0.109200
     52 H17         0.9070    0.7200    5.8710 hn        1 LIG      0.466800
     53 H18         2.6070    0.1520    7.5050 hx        1 LIG      0.099700
     54 H19         2.0310   -1.4990    7.4430 hx        1 LIG      0.099700
     55 H20         0.3750    0.8830    8.2640 hc        1 LIG      0.087200
     56 H21         1.0690   -0.2820    9.3630 hc        1 LIG      0.087200
     57 H22        -1.3170   -0.7750    8.8340 hc        1 LIG      0.079200
     58 H23        -0.2510   -2.0700    8.3570 hc        1 LIG      0.079200
     59 H24        -1.3650    0.0820    6.5530 hc        1 LIG      0.087200
     60 H25        -1.8080   -1.6070    6.5360 hc        1 LIG      0.087200
     61 H26         0.5180   -2.1970    5.9520 hx        1 LIG      0.099700
     62 H27        -0.1900   -1.1330    4.7580 hx        1 LIG      0.099700
@<TRIPOS>BOND
     1    1    2 ar  
     2    1   16 ar  
     3    2    3 ar  
     4    3    4 1   
     5    3    5 ar  
     6    5    6 ar  
     7    6    7 1   
     8    6   16 ar  
     9    7    8 1   
    10    8    9 1   
    11    8   17 2   
    12    9   10 ar  
    13    9   15 ar  
    14   10   11 ar  
    15   11   12 ar  
    16   12   13 1   
    17   12   14 ar  
    18   14   15 ar  
    19   16   17 1   
    20   17   18 1   
    21   18   19 2   
    22   18   20 1   
    23   20   21 ar  
    24   20   25 ar  
    25   21   22 ar  
    26   22   23 ar  
    27   23   24 ar  
    28   23   26 1   
    29   24   25 ar  
    30   26   27 1   
    31   27   28 1   
    32   28   29 1   
    33   29   30 1   
    34   29   34 1   
    35   30   31 1   
    36   31   32 1   
    37   32   33 1   
    38   33   34 1   
    39    1   35 1   
    40    2   36 1   
    41    4   37 1   
    42    5   38 1   
    43   10   39 1   
    44   11   40 1   
    45   13   41 1   
    46   14   42 1   
    47   15   43 1   
    48   21   44 1   
    49   22   45 1   
    50   24   46 1   
    51   25   47 1   
    52   27   48 1   
    53   27   49 1   
    54   28   50 1   
    55   28   51 1   
    56   29   52 1   
    57   30   53 1   
    58   30   54 1   
    59   31   55 1   
    60   31   56 1   
    61   32   57 1   
    62   32   58 1   
    63   33   59 1   
    64   33   60 1   
    65   34   61 1   
    66   34   62 1   
@<TRIPOS>SUBSTRUCTURE
     1 LIG         1 TEMP              0 ****  ****    0 ROOT
