@<TRIPOS>MOLECULE
H5A
   26    26     1     0     0
SMALL
bcc


@<TRIPOS>ATOM
      1 C          -1.4040    0.0830   -0.0070 C.a       1 LIG     -0.071600
      2 C1         -0.6470    1.2570    0.0420 C.a       1 LIG     -0.195500
      3 C2          0.7290    1.1870    0.1420 C.a       1 LIG      0.101600
      4 C3          1.3630   -0.0520    0.1930 C.a       1 LIG      0.010100
      5 C4          3.4590   -0.1590   -0.9230 C.3       1 LIG      0.119700
      6 C5         -2.8730    0.1540   -0.1140 C.        1 LIG      0.908200
      7 C6          0.4020   -3.5930    0.1400 C.3       1 LIG      0.117700
      8 O           1.2340   -2.4320    0.1950 O.2       1 LIG     -0.334900
      9 C7          0.6120   -1.2240    0.1450 C.a       1 LIG      0.101600
     10 C8         -0.7650   -1.1600    0.0390 C.a       1 LIG     -0.195500
     11 O1          2.7160   -0.1180    0.2970 O.2       1 LIG     -0.319900
     12 O2          1.4660    2.3290    0.1900 O.2       1 LIG     -0.334900
     13 C9          0.7510    3.5650    0.1320 C.3       1 LIG      0.117700
     14 O3         -3.4270    1.2350   -0.1600 O.3       1 LIG     -0.826300
     15 O4         -3.6010   -0.9790   -0.1620 O.3       1 LIG     -0.826300
     16 H          -1.1160    2.1760    0.0040 H         1 LIG      0.163000
     17 H1          4.5050   -0.2090   -0.7020 H         1 LIG      0.028367
     18 H2          3.2570    0.7240   -1.4930 H         1 LIG      0.028367
     19 H3          3.1710   -1.0220   -1.4870 H         1 LIG      0.028367
     20 H4          1.0120   -4.4710    0.1880 H         1 LIG      0.036033
     21 H5         -0.1510   -3.5920   -0.7760 H         1 LIG      0.036033
     22 H6         -0.2770   -3.5850    0.9670 H         1 LIG      0.036033
     23 H7         -1.3210   -2.0290   -0.0060 H         1 LIG      0.163000
     24 H8          1.4430    4.3800    0.1780 H         1 LIG      0.036033
     25 H9          0.0740    3.6240    0.9590 H         1 LIG      0.036033
     26 H10         0.2010    3.6160   -0.7840 H         1 LIG      0.036033
@<TRIPOS>BOND
     1    1    6 1   
     2    2    1 ar  
     3    3    2 ar  
     4    4    9 ar  
     5    4    3 ar  
     6    5   11 1   
     7    6   14 1   
     8    6   15 1   
     9    8    7 1   
    10    8    9 1   
    11    9   10 ar  
    12   10    1 ar  
    13   11    4 1   
    14   12   13 1   
    15   12    3 1   
    16    2   16 1   
    17    5   17 1   
    18    5   18 1   
    19    5   19 1   
    20    7   20 1   
    21    7   21 1   
    22    7   22 1   
    23   10   23 1   
    24   13   24 1   
    25   13   25 1   
    26   13   26 1   
@<TRIPOS>SUBSTRUCTURE
     1 LIG         1 TEMP              0 ****  ****    0 ROOT
