@<TRIPOS>MOLECULE
77X
   36    38     1     0     0
SMALL
bcc


@<TRIPOS>ATOM
      1 C           5.0970    1.9460    0.5770 C.3       1 LIG     -0.088100
      2 C1          4.3640    0.7300    0.0070 C.3       1 LIG     -0.146400
      3 C2          2.8870    1.0240   -0.0680 C.        1 LIG      0.649100
      4 O           2.4640    2.0990    0.2990 O.3       1 LIG     -0.593100
      5 N           2.0380    0.0910   -0.5420 N.        1 LIG     -0.454800
      6 C3          2.5310   -1.2210   -0.9850 C.3       1 LIG      0.088000
      7 C4          1.9620   -2.3100   -0.0670 C.3       1 LIG     -0.038100
      8 C5          0.5910    0.3590   -0.6230 C.3       1 LIG      0.153300
      9 C6         -0.1210   -0.8690   -0.1070 C.c       1 LIG     -0.258600
     10 C7          0.4910   -2.0510    0.1410 C.d       1 LIG     -0.119600
     11 N1         -0.4410   -2.9130    0.5870 N.a       1 LIG      0.002400
     12 N2         -1.6720   -2.2420    0.6290 N.d       1 LIG     -0.505800
     13 C8         -1.4800   -1.0100    0.2060 C.c       1 LIG      0.379800
     14 C9         -2.5170    0.0460    0.0900 C.a       1 LIG     -0.118500
     15 C10        -3.8180   -0.2890   -0.2780 C.a       1 LIG     -0.108500
     16 C11        -4.7780    0.6970   -0.3850 C.a       1 LIG     -0.134500
     17 C12        -4.4500    2.0160   -0.1270 C.a       1 LIG     -0.125000
     18 C13        -3.1600    2.3540    0.2380 C.a       1 LIG     -0.134500
     19 C14        -2.1940    1.3760    0.3540 C.a       1 LIG     -0.108500
     20 H           6.1450    1.7380    0.6300 H         1 LIG      0.047033
     21 H1          4.7250    2.1590    1.5570 H         1 LIG      0.047033
     22 H2          4.9330    2.7910   -0.0580 H         1 LIG      0.047033
     23 H3          4.5280   -0.1150    0.6420 H         1 LIG      0.060700
     24 H4          4.7360    0.5160   -0.9730 H         1 LIG      0.060700
     25 H5          3.6000   -1.2360   -0.9380 H         1 LIG      0.059200
     26 H6          2.2190   -1.4010   -1.9920 H         1 LIG      0.059200
     27 H7          2.4680   -2.2860    0.8750 H         1 LIG      0.059700
     28 H8          2.1020   -3.2720   -0.5140 H         1 LIG      0.059700
     29 H9          0.3090    0.5460   -1.6380 H         1 LIG      0.079700
     30 H10         0.3310    1.2200   -0.0430 H         1 LIG      0.079700
     31 H11        -0.2860   -3.8520    0.8400 H         1 LIG      0.322700
     32 H12        -4.0640   -1.2730   -0.4700 H         1 LIG      0.142000
     33 H13        -5.7420    0.4500   -0.6580 H         1 LIG      0.132500
     34 H14        -5.1710    2.7500   -0.2070 H         1 LIG      0.131000
     35 H15        -2.9190    3.3400    0.4240 H         1 LIG      0.132500
     36 H16        -1.2340    1.6290    0.6360 H         1 LIG      0.142000
@<TRIPOS>BOND
     1    2    1 1   
     2    3    2 1   
     3    4    3 2   
     4    5    8 1   
     5    5    3 1   
     6    6    5 1   
     7    7    6 1   
     8    9    8 1   
     9   10    7 1   
    10   10    9 ar  
    11   11   12 ar  
    12   11   10 ar  
    13   12   13 ar  
    14   13   14 1   
    15   13    9 ar  
    16   14   15 ar  
    17   15   16 ar  
    18   17   16 ar  
    19   18   17 ar  
    20   19   18 ar  
    21   19   14 ar  
    22    1   20 1   
    23    1   21 1   
    24    1   22 1   
    25    2   23 1   
    26    2   24 1   
    27    6   25 1   
    28    6   26 1   
    29    7   27 1   
    30    7   28 1   
    31    8   29 1   
    32    8   30 1   
    33   11   31 1   
    34   15   32 1   
    35   16   33 1   
    36   17   34 1   
    37   18   35 1   
    38   19   36 1   
@<TRIPOS>SUBSTRUCTURE
     1 LIG         1 TEMP              0 ****  ****    0 ROOT
