@<TRIPOS>MOLECULE
PT3
   25    24     1     0     0
SMALL
bcc


@<TRIPOS>ATOM
      1 O           1.2570    1.2550   -3.0950 O.3       1 LIG     -0.826800
      2 O1          0.6290   -0.7900   -3.6460 O.3       1 LIG     -0.826800
      3 C           0.8040    0.0310   -2.7780 C.        1 LIG      0.899600
      4 C1          0.5160   -0.3160   -1.3410 C.3       1 LIG     -0.018900
      5 O2          0.0490   -1.6640   -1.2620 O.h       1 LIG     -0.626800
      6 C2         -0.5560    0.6270   -0.7930 C.3       1 LIG      0.066100
      7 O3         -1.7500    0.4900   -1.5650 O.h       1 LIG     -0.584800
      8 C3         -0.8440    0.2790    0.6440 C.        1 LIG      0.623100
      9 O4         -1.9630   -0.0530    0.9750 O.3       1 LIG     -0.653100
     10 N           0.1400    0.3370    1.5620 N.        1 LIG     -0.559900
     11 C4         -0.1400   -0.0010    2.9600 C.3       1 LIG      0.090000
     12 C5          1.1380    0.1450    3.7860 C.3       1 LIG     -0.114400
     13 C6          0.8450   -0.2080    5.2460 C.3       1 LIG     -0.086100
     14 H           1.4110   -0.2130   -0.7630 H         1 LIG      0.053700
     15 H1         -0.7620   -1.7560   -1.7860 H         1 LIG      0.431000
     16 H2         -0.2070    1.6370   -0.8520 H         1 LIG      0.095700
     17 H3         -2.0660   -0.4250   -1.5120 H         1 LIG      0.412000
     18 H4          1.0480    0.6070    1.2940 H         1 LIG      0.361500
     19 H5         -0.4900   -1.0100    3.0200 H         1 LIG      0.043700
     20 H6         -0.8890    0.6600    3.3430 H         1 LIG      0.043700
     21 H7          1.4880    1.1550    3.7260 H         1 LIG      0.052700
     22 H8          1.8880   -0.5150    3.4030 H         1 LIG      0.052700
     23 H9          0.0950    0.4530    5.6290 H         1 LIG      0.024367
     24 H10         1.7400   -0.1060    5.8240 H         1 LIG      0.024367
     25 H11         0.4950   -1.2170    5.3060 H         1 LIG      0.024367
@<TRIPOS>BOND
     1    1    3 1   
     2    2    3 1   
     3    3    4 1   
     4    4    5 1   
     5    4    6 1   
     6    6    7 1   
     7    6    8 1   
     8    8    9 2   
     9    8   10 1   
    10   10   11 1   
    11   11   12 1   
    12   12   13 1   
    13    4   14 1   
    14    5   15 1   
    15    6   16 1   
    16    7   17 1   
    17   10   18 1   
    18   11   19 1   
    19   11   20 1   
    20   12   21 1   
    21   12   22 1   
    22   13   23 1   
    23   13   24 1   
    24   13   25 1   
@<TRIPOS>SUBSTRUCTURE
     1 LIG         1 TEMP              0 ****  ****    0 ROOT
