@<TRIPOS>MOLECULE
C57
   52    53     1     0     0
SMALL
bcc


@<TRIPOS>ATOM
      1 O          -0.8210   -2.7040    0.0720 O.3       1 LIG     -0.628100
      2 C          -0.6660   -1.5100    0.2470 C.        1 LIG      0.710700
      3 C1          0.6800   -0.9220    0.1530 C.a       1 LIG     -0.243600
      4 C2          1.7860   -1.7360   -0.1400 C.a       1 LIG      0.247100
      5 O1          1.6200   -3.0680   -0.3360 O.2       1 LIG     -0.310900
      6 C3          2.7910   -3.8320   -0.6300 C.3       1 LIG      0.107700
      7 C4          3.0470   -1.1730   -0.2260 C.a       1 LIG     -0.290000
      8 C5          3.2110    0.1920   -0.0240 C.a       1 LIG      0.293600
      9 N           4.4780    0.7580   -0.1110 N.h       1 LIG     -0.659000
     10 C6          5.3890    0.1640    0.8770 C.3       1 LIG      0.178600
     11 C7          5.0200    0.6300   -1.4710 C.3       1 LIG      0.178600
     12 C8          2.1100    0.9960    0.2660 C.a       1 LIG     -0.249200
     13 N1          2.2950    2.4490    0.4780 N.o       1 LIG      0.328200
     14 O2          1.3350    3.1550    0.7320 O.3       1 LIG     -0.202000
     15 O3          3.4080    2.9390    0.4000 O.3       1 LIG     -0.202000
     16 C9          0.8610    0.4510    0.3480 C.a       1 LIG      0.004000
     17 N2         -1.7260   -0.7260    0.5230 N.        1 LIG     -0.584900
     18 C10        -3.0670   -1.3110    0.6110 C.3       1 LIG      0.078000
     19 C11        -6.3400   -0.2470   -0.2320 C.3       1 LIG     -0.099400
     20 C12        -5.5050   -0.8000    0.9450 C.3       1 LIG     -0.099400
     21 C13        -4.1010   -0.1940    0.7630 C.3       1 LIG      0.110500
     22 N3         -4.1400    0.6290   -0.4650 N.4       1 LIG     -0.697400
     23 C14        -3.2730    1.8080   -0.3370 C.3       1 LIG      0.121800
     24 C15        -5.5600    1.0280   -0.6410 C.3       1 LIG      0.110800
     25 C16        -3.2570    2.5750   -1.6600 C.3       1 LIG     -0.134100
     26 H           2.5230   -4.8590   -0.7610 H         1 LIG      0.061700
     27 H1          3.4860   -3.7450    0.1790 H         1 LIG      0.061700
     28 H2          3.2410   -3.4630   -1.5280 H         1 LIG      0.061700
     29 H3          3.8640   -1.7660   -0.4400 H         1 LIG      0.166000
     30 H4          4.9710    0.2710    1.8560 H         1 LIG      0.056033
     31 H5          6.3340    0.6630    0.8360 H         1 LIG      0.056033
     32 H6          5.5250   -0.8750    0.6580 H         1 LIG      0.056033
     33 H7          4.3390    1.0690   -2.1690 H         1 LIG      0.056033
     34 H8          5.1530   -0.4050   -1.7060 H         1 LIG      0.056033
     35 H9          5.9630    1.1330   -1.5280 H         1 LIG      0.056033
     36 H10         0.0490    1.0530    0.5540 H         1 LIG      0.161000
     37 H11        -1.6000    0.2400    0.6660 H         1 LIG      0.332500
     38 H12        -3.1170   -1.9620    1.4590 H         1 LIG      0.087700
     39 H13        -3.2720   -1.8690   -0.2790 H         1 LIG      0.087700
     40 H14        -7.3340   -0.0060    0.0810 H         1 LIG      0.089700
     41 H15        -6.4560   -0.9470   -1.0330 H         1 LIG      0.089700
     42 H16        -5.4610   -1.8680    0.9040 H         1 LIG      0.088200
     43 H17        -5.9310   -0.5450    1.8930 H         1 LIG      0.088200
     44 H18        -3.8270    0.3990    1.6110 H         1 LIG      0.105700
     45 H19        -3.7970    0.1090   -1.2730 H         1 LIG      0.483800
     46 H20        -2.2790    1.4950   -0.0940 H         1 LIG      0.095700
     47 H21        -3.6470    2.4430    0.4390 H         1 LIG      0.095700
     48 H22        -5.8090    1.8510   -0.0040 H         1 LIG      0.102200
     49 H23        -5.7840    1.3560   -1.6350 H         1 LIG      0.102200
     50 H24        -2.8830    1.9400   -2.4360 H         1 LIG      0.077700
     51 H25        -2.6260    3.4340   -1.5670 H         1 LIG      0.077700
     52 H26        -4.2510    2.8880   -1.9030 H         1 LIG      0.077700
@<TRIPOS>BOND
     1    1    2 2   
     2    2    3 1   
     3    2   17 1   
     4    3    4 ar  
     5    3   16 ar  
     6    4    5 1   
     7    4    7 ar  
     8    5    6 1   
     9    7    8 ar  
    10    8    9 1   
    11    8   12 ar  
    12    9   10 1   
    13    9   11 1   
    14   12   16 ar  
    15   12   13 1   
    16   13   14 1   
    17   13   15 1   
    18   17   18 1   
    19   18   21 1   
    20   19   20 1   
    21   19   24 1   
    22   20   21 1   
    23   21   22 1   
    24   22   23 1   
    25   22   24 1   
    26   23   25 1   
    27    6   26 1   
    28    6   27 1   
    29    6   28 1   
    30    7   29 1   
    31   10   30 1   
    32   10   31 1   
    33   10   32 1   
    34   11   33 1   
    35   11   34 1   
    36   11   35 1   
    37   16   36 1   
    38   17   37 1   
    39   18   38 1   
    40   18   39 1   
    41   19   40 1   
    42   19   41 1   
    43   20   42 1   
    44   20   43 1   
    45   21   44 1   
    46   22   45 1   
    47   23   46 1   
    48   23   47 1   
    49   24   48 1   
    50   24   49 1   
    51   25   50 1   
    52   25   51 1   
    53   25   52 1   
@<TRIPOS>SUBSTRUCTURE
     1 LIG         1 TEMP              0 ****  ****    0 ROOT
