@<TRIPOS>MOLECULE
G3P
   17    16     1     0     0
SMALL
bcc


@<TRIPOS>ATOM
      1 O           4.3790    0.3020   -0.3140 O.h       1 LIG     -0.660800
      2 C           3.1560    0.7050    0.3050 C.3       1 LIG      0.072400
      3 C1          1.9970   -0.1050   -0.2790 C.3       1 LIG      0.080100
      4 O1          2.1590   -1.4830    0.0640 O.h       1 LIG     -0.667800
      5 C2          0.6750    0.4100    0.2910 C.3       1 LIG      0.210400
      6 O2         -0.4130   -0.2670   -0.3410 O.2       1 LIG     -0.566200
      7 O3         -2.8980   -1.0030   -0.7860 O.3       1 LIG     -0.928500
      8 O4         -2.1660   -0.1440    1.4720 O.3       1 LIG     -0.928500
      9 O5         -2.3260    1.5350   -0.4060 O.3       1 LIG     -0.928500
     10 P          -1.9550    0.0270    0.0160 P.5       1 LIG      1.314900
     11 H           5.1140    0.8160    0.0570 H         1 LIG      0.399000
     12 H1          2.9900    1.7460    0.1230 H         1 LIG      0.084200
     13 H2          3.2160    0.5320    1.3590 H         1 LIG      0.084200
     14 H3          1.9900   -0.0000   -1.3440 H         1 LIG     -0.001300
     15 H4          2.1650   -1.5770    1.0290 H         1 LIG      0.447000
     16 H5          0.5940    1.4620    0.1100 H         1 LIG     -0.005300
     17 H6          0.6450    0.2260    1.3450 H         1 LIG     -0.005300
@<TRIPOS>BOND
     1    1    2 1   
     2    2    3 1   
     3    3    4 1   
     4    3    5 1   
     5    5    6 1   
     6    6   10 1   
     7    7   10 1   
     8    8   10 1   
     9    9   10 1   
    10    1   11 1   
    11    2   12 1   
    12    2   13 1   
    13    3   14 1   
    14    4   15 1   
    15    5   16 1   
    16    5   17 1   
@<TRIPOS>SUBSTRUCTURE
     1 LIG         1 TEMP              0 ****  ****    0 ROOT
