@<TRIPOS>MOLECULE
G4J
   49    53     1     0     0
SMALL
bcc


@<TRIPOS>ATOM
      1 N          -3.6970   -0.5100   -0.7200 N.h       1 LIG     -0.656300
      2 C          -5.6790   -0.1900    0.7780 C.c       1 LIG      0.335200
      3 N1         -6.9010   -0.6560    0.8170 N.d       1 LIG     -0.510800
      4 C1         -1.3970    2.0640    1.4290 C.a       1 LIG     -0.467600
      5 C2         -2.7040    1.8100    1.7930 C.a       1 LIG      0.479200
      6 C3          0.7500    0.8580   -1.2980 C.3       1 LIG      0.183300
      7 C4          2.8000    1.6250    0.4970 C.3       1 LIG      0.073200
      8 C5         -0.8800    1.4160    0.3050 C.a       1 LIG      0.713200
      9 N2         -1.6600    0.5820   -0.3740 N.b       1 LIG     -0.810000
     10 C6          5.5720   -1.9860    0.6360 C.x       1 LIG      0.396600
     11 C7          4.6650   -0.7540    0.6770 C.x       1 LIG     -0.235700
     12 C8         -8.2960   -2.2750   -0.5810 C.3       1 LIG      0.043600
     13 N3         -7.0730   -1.5360   -0.2580 N.a       1 LIG      0.090400
     14 C9         -5.9040   -1.5840   -0.9490 C.d       1 LIG     -0.187300
     15 C10        -5.0260   -0.7580   -0.3260 C.c       1 LIG     -0.058700
     16 C11        -2.9100    0.3650    0.0090 C.a       1 LIG      0.890900
     17 N4         -3.4240    0.9610    1.0740 N.b       1 LIG     -0.750000
     18 N5          0.4260    1.6420   -0.0980 N.h       1 LIG     -0.764300
     19 C12         2.2090    1.1350   -1.6970 C.3       1 LIG      0.073200
     20 C13         2.4170    2.6680   -1.6810 C.3       1 LIG     -0.078900
     21 C14         2.8090    2.9930   -0.2250 C.3       1 LIG     -0.078900
     22 C15         1.3690    1.3700    0.9970 C.3       1 LIG      0.183300
     23 N6          3.0620    0.6450   -0.5860 N.        1 LIG     -0.443800
     24 C16         3.8770   -0.4290   -0.5670 C.        1 LIG      0.684100
     25 O           3.9770   -1.1330   -1.5490 O.3       1 LIG     -0.563100
     26 C17         6.1840   -0.5830    0.6160 C.x       1 LIG     -0.149400
     27 F           5.6070   -2.7230   -0.5520 F.        1 LIG     -0.192300
     28 F1          5.7030   -2.7310    1.8130 F.        1 LIG     -0.192300
     29 H          -3.3270   -0.9590   -1.5140 H         1 LIG      0.430800
     30 H1         -5.2660    0.4800    1.4450 H         1 LIG      0.063100
     31 H2         -0.8150    2.7180    1.9750 H         1 LIG      0.148000
     32 H3         -3.1160    2.2760    2.6160 H         1 LIG      0.025100
     33 H4          0.0990    1.1410   -2.0990 H         1 LIG      0.058450
     34 H5          0.6220   -0.1850   -1.0950 H         1 LIG      0.058450
     35 H6          3.4960    1.5710    1.3080 H         1 LIG      0.092700
     36 H7          3.8900   -0.4060    1.3270 H         1 LIG      0.121700
     37 H8         -9.0540   -2.0410    0.1370 H         1 LIG      0.057367
     38 H9         -8.0950   -3.3260   -0.5570 H         1 LIG      0.057367
     39 H10        -8.6320   -1.9980   -1.5580 H         1 LIG      0.057367
     40 H11        -5.7180   -2.1460   -1.7940 H         1 LIG      0.176000
     41 H12         2.4320    0.6880   -2.6430 H         1 LIG      0.092700
     42 H13         1.5140    3.1740   -1.9510 H         1 LIG      0.059200
     43 H14         3.1620    2.9830   -2.3810 H         1 LIG      0.059200
     44 H15         2.0980    3.6580    0.2180 H         1 LIG      0.059200
     45 H16         3.7600    3.4790   -0.1600 H         1 LIG      0.059200
     46 H17         1.1570    2.0160    1.8230 H         1 LIG      0.058450
     47 H18         1.2720    0.3530    1.3150 H         1 LIG      0.058450
     48 H19         6.6450   -0.2130   -0.2760 H         1 LIG      0.101200
     49 H20         6.9120   -0.0660    1.2070 H         1 LIG      0.101200
@<TRIPOS>BOND
     1    1   16 1   
     2    2   15 ar  
     3    3    2 ar  
     4    4    5 ar  
     5    6   18 1   
     6    7   22 1   
     7    8    4 ar  
     8    9    8 ar  
     9    9   16 ar  
    10   10   28 1   
    11   10   11 1   
    12   12   13 1   
    13   13    3 ar  
    14   13   14 ar  
    15   14   15 ar  
    16   15    1 1   
    17   16   17 ar  
    18   17    5 ar  
    19   18   22 1   
    20   18    8 1   
    21   19   23 1   
    22   19   20 1   
    23   19    6 1   
    24   20   21 1   
    25   21    7 1   
    26   23    7 1   
    27   24   11 1   
    28   24   23 1   
    29   25   24 2   
    30   26   10 1   
    31   26   11 1   
    32   27   10 1   
    33    1   29 1   
    34    2   30 1   
    35    4   31 1   
    36    5   32 1   
    37    6   33 1   
    38    6   34 1   
    39    7   35 1   
    40   11   36 1   
    41   12   37 1   
    42   12   38 1   
    43   12   39 1   
    44   14   40 1   
    45   19   41 1   
    46   20   42 1   
    47   20   43 1   
    48   21   44 1   
    49   21   45 1   
    50   22   46 1   
    51   22   47 1   
    52   26   48 1   
    53   26   49 1   
@<TRIPOS>SUBSTRUCTURE
     1 LIG         1 TEMP              0 ****  ****    0 ROOT
