@<TRIPOS>MOLECULE
OBN
   85    90     1     0     0
SMALL
bcc


@<TRIPOS>ATOM
      1 C           0.5710    1.4260   -1.3010 c3        1 LIG      0.144100
      2 C1          1.4310    0.2190   -1.6830 c3        1 LIG     -0.111400
      3 C2          0.5530   -0.8380   -2.3540 c3        1 LIG      0.145100
      4 C3         -0.5440   -1.2800   -1.3840 c3        1 LIG     -0.137400
      5 C4         -1.4030   -0.0730   -1.0030 c3        1 LIG      0.174800
      6 C5         -2.4820   -0.5800   -0.0450 c3        1 LIG     -0.105400
      7 C6         -1.8550   -1.1360    1.2340 c3        1 LIG     -0.074400
      8 C7         -0.9880   -0.0580    1.8880 c3        1 LIG     -0.078700
      9 C8          0.1090    0.3980    0.9280 c3        1 LIG     -0.068700
     10 C9         -0.5270    0.9860   -0.3330 c3        1 LIG     -0.092000
     11 C10         0.9580    1.4730    1.6140 c3        1 LIG      0.139100
     12 C11         1.6390    0.8520    2.8310 c3        1 LIG     -0.108400
     13 C12         0.6010    0.3730    3.8480 c3        1 LIG     -0.057000
     14 C13        -0.4300   -0.5520    3.1800 c3        1 LIG      0.158800
     15 C14         0.3840   -1.8750    2.9880 c3        1 LIG     -0.071400
     16 C15         1.2280   -1.9810    4.2790 c3        1 LIG     -0.074400
     17 C16         1.3470   -0.5530    4.8440 c3        1 LIG     -0.014500
     18 C17        -0.0710    1.5480    4.5610 c3        1 LIG     -0.095100
     19 C18        -1.3870    2.1930    0.0450 c3        1 LIG      0.156400
     20 C19         0.7010   -0.4780    6.2040 c2        1 LIG     -0.072400
     21 C20        -0.6850   -0.9530    6.5680 c3        1 LIG      0.136600
     22 C21         1.2420    0.0230    7.3110 ce        1 LIG     -0.248200
     23 C22         0.2890   -0.0920    8.4180 c         1 LIG      0.704800
     24 C23        -0.2110   -1.3660   -4.4520 c3        1 LIG      0.293900
     25 C24        -1.1230   -0.9170   -5.5960 c3        1 LIG      0.093100
     26 C25        -0.4940    0.2960   -6.2900 c3        1 LIG      0.081100
     27 C26         0.9380   -0.0630   -6.6990 c3        1 LIG      0.081100
     28 C27         1.6940   -0.5740   -5.4710 c3        1 LIG      0.112100
     29 C28         3.1370   -0.9020   -5.8620 c3        1 LIG     -0.090100
     30 O          -0.0230    1.9780   -2.4770 oh        1 LIG     -0.607800
     31 O1         -0.0430   -0.2870   -3.5290 os        1 LIG     -0.453600
     32 O2         -2.0200    0.4400   -2.1860 oh        1 LIG     -0.591800
     33 O3          1.9450    1.9590    0.7030 oh        1 LIG     -0.589800
     34 O4         -1.5060   -0.7930    4.0880 oh        1 LIG     -0.602800
     35 O5         -1.9810    2.7430   -1.1320 oh        1 LIG     -0.595800
     36 O6         -0.8470   -0.6700    7.9860 os        1 LIG     -0.418900
     37 O7          0.4940    0.2790    9.5570 o         1 LIG     -0.558500
     38 O8         -1.2710   -1.9840   -6.5360 oh        1 LIG     -0.587800
     39 O9         -1.2570    0.6340   -7.4490 oh        1 LIG     -0.573800
     40 O10         1.5930    1.0970   -7.2150 oh        1 LIG     -0.575800
     41 O11         1.0600   -1.7490   -4.9700 os        1 LIG     -0.443600
     42 H           1.1840    2.1660   -0.8300 h1        1 LIG      0.101700
     43 H1          1.8770   -0.1940   -0.8030 hc        1 LIG      0.059200
     44 H2          2.2000    0.5280   -2.3600 hc        1 LIG      0.059200
     45 H3          1.1530   -1.6820   -2.6220 h1        1 LIG      0.061700
     46 H4         -0.0970   -1.6920   -0.5030 hc        1 LIG      0.056700
     47 H5         -1.1570   -2.0210   -1.8520 hc        1 LIG      0.056700
     48 H6         -3.0430   -1.3540   -0.5260 hc        1 LIG      0.064200
     49 H7         -3.1220    0.2370    0.2140 hc        1 LIG      0.064200
     50 H8         -1.2490   -1.9840    0.9940 hc        1 LIG      0.051700
     51 H9         -2.6290   -1.4310    1.9120 hc        1 LIG      0.051700
     52 H10        -1.5960    0.7950    2.1070 hc        1 LIG      0.055700
     53 H11         0.7230   -0.4360    0.6610 hc        1 LIG      0.047700
     54 H12         0.3380    2.2900    1.9210 h1        1 LIG      0.087700
     55 H13         2.2700    1.5830    3.2910 hc        1 LIG      0.053700
     56 H14         2.2170    0.0110    2.5090 hc        1 LIG      0.053700
     57 H15         1.0140   -1.8130    2.1250 hc        1 LIG      0.059200
     58 H16        -0.2440   -2.7280    2.8330 hc        1 LIG      0.059200
     59 H17         2.1990   -2.3720    4.0550 hc        1 LIG      0.051700
     60 H18         0.7700   -2.6400    4.9870 hc        1 LIG      0.051700
     61 H19         2.3710   -0.2620    4.9550 hc        1 LIG      0.064700
     62 H20        -0.5730    2.1610    3.8420 hc        1 LIG      0.046700
     63 H21         0.6710    2.1280    5.0690 hc        1 LIG      0.046700
     64 H22        -0.7800    1.1760    5.2710 hc        1 LIG      0.046700
     65 H23        -0.7740    2.9340    0.5150 h1        1 LIG      0.042200
     66 H24        -2.1560    1.8840    0.7220 h1        1 LIG      0.042200
     67 H25        -0.7780   -2.0030    6.3860 h1        1 LIG      0.092700
     68 H26        -1.4340   -0.4620    5.9820 h1        1 LIG      0.092700
     69 H27         2.1880    0.4300    7.3800 ha        1 LIG      0.176000
     70 H28        -0.6550   -2.2020   -3.9530 h2        1 LIG      0.087700
     71 H29        -2.0850   -0.6520   -5.2090 h1        1 LIG      0.106700
     72 H30        -0.4830    1.1340   -5.6250 h1        1 LIG      0.098700
     73 H31         0.9190   -0.8220   -7.4530 h1        1 LIG      0.078700
     74 H32         1.6900    0.1810   -4.7130 h1        1 LIG      0.057700
     75 H33         3.1380   -1.6570   -6.6200 hc        1 LIG      0.052700
     76 H34         3.6670   -1.2580   -5.0030 hc        1 LIG      0.052700
     77 H35         3.6140   -0.0210   -6.2360 hc        1 LIG      0.052700
     78 H36        -0.5790    1.3070   -2.9040 ho        1 LIG      0.427000
     79 H37        -2.5680   -0.2510   -2.5900 ho        1 LIG      0.404000
     80 H38         2.5120    1.2250    0.4190 ho        1 LIG      0.396000
     81 H39        -2.0140    0.0240    4.2110 ho        1 LIG      0.406000
     82 H40        -1.2840    3.0230   -1.7460 ho        1 LIG      0.427000
     83 H41        -0.4010   -2.2270   -6.8890 ho        1 LIG      0.411000
     84 H42        -1.2720   -0.1210   -8.0580 ho        1 LIG      0.414000
     85 H43         1.6120    1.7870   -6.5340 ho        1 LIG      0.410000
@<TRIPOS>BOND
     1    1    2 1   
     2    1   10 1   
     3    1   30 1   
     4    2    3 1   
     5    3    4 1   
     6    3   31 1   
     7    4    5 1   
     8    5    6 1   
     9    5   10 1   
    10    5   32 1   
    11    6    7 1   
    12    7    8 1   
    13    8    9 1   
    14    8   14 1   
    15    9   10 1   
    16    9   11 1   
    17   10   19 1   
    18   11   12 1   
    19   11   33 1   
    20   12   13 1   
    21   13   14 1   
    22   13   17 1   
    23   13   18 1   
    24   14   15 1   
    25   14   34 1   
    26   15   16 1   
    27   16   17 1   
    28   17   20 1   
    29   19   35 1   
    30   20   21 1   
    31   20   22 2   
    32   21   36 1   
    33   22   23 1   
    34   23   36 1   
    35   23   37 2   
    36   24   25 1   
    37   24   31 1   
    38   24   41 1   
    39   25   26 1   
    40   25   38 1   
    41   26   27 1   
    42   26   39 1   
    43   27   28 1   
    44   27   40 1   
    45   28   29 1   
    46   28   41 1   
    47    1   42 1   
    48    2   43 1   
    49    2   44 1   
    50    3   45 1   
    51    4   46 1   
    52    4   47 1   
    53    6   48 1   
    54    6   49 1   
    55    7   50 1   
    56    7   51 1   
    57    8   52 1   
    58    9   53 1   
    59   11   54 1   
    60   12   55 1   
    61   12   56 1   
    62   15   57 1   
    63   15   58 1   
    64   16   59 1   
    65   16   60 1   
    66   17   61 1   
    67   18   62 1   
    68   18   63 1   
    69   18   64 1   
    70   19   65 1   
    71   19   66 1   
    72   21   67 1   
    73   21   68 1   
    74   22   69 1   
    75   24   70 1   
    76   25   71 1   
    77   26   72 1   
    78   27   73 1   
    79   28   74 1   
    80   29   75 1   
    81   29   76 1   
    82   29   77 1   
    83   30   78 1   
    84   32   79 1   
    85   33   80 1   
    86   34   81 1   
    87   35   82 1   
    88   38   83 1   
    89   39   84 1   
    90   40   85 1   
@<TRIPOS>SUBSTRUCTURE
     1 LIG         1 TEMP              0 ****  ****    0 ROOT
