@<TRIPOS>MOLECULE
GSN
   37    36     1     0     0
SMALL
bcc


@<TRIPOS>ATOM
      1 O           6.5010    1.3410   -1.0250 o         1 UNK     -0.777300
      2 C           5.8550    0.5410   -0.3690 c         1 UNK      0.930600
      3 O1          6.1900   -0.6310   -0.3350 o         1 UNK     -0.777300
      4 C1          4.6420    1.0000    0.3990 c3        1 UNK     -0.058500
      5 N           4.5870    2.4680    0.3940 n4        1 UNK     -0.839600
      6 C2          3.3800    0.4400   -0.2590 c3        1 UNK     -0.085400
      7 C3          2.1590    0.8020    0.5890 c3        1 UNK     -0.162400
      8 C4          0.9150    0.2500   -0.0590 c         1 UNK      0.644100
      9 O2          0.9970   -0.3710   -1.0970 o         1 UNK     -0.636100
     10 N1         -0.2880    0.4480    0.5160 n         1 UNK     -0.523900
     11 C5         -1.4970   -0.0890   -0.1140 c3        1 UNK      0.008700
     12 C6         -1.6940   -1.5440    0.3160 c3        1 UNK     -0.026300
     13 S          -0.2610   -2.5240   -0.1970 ss        1 UNK     -0.157600
     14 N2          0.7830   -2.0520    0.8630 n2        1 UNK      0.076800
     15 O3          1.9140   -2.5040    0.8460 o         1 UNK     -0.145300
     16 C7         -2.6900    0.7270    0.3120 c         1 UNK      0.641100
     17 O4         -2.5450    1.6640    1.0680 o         1 UNK     -0.697100
     18 N          -3.9190    0.4150   -0.1460 n         2 GLY     -0.465900
     19 CA         -5.0780    1.2080    0.2690 c3        2 GLY     -0.090000
     20 C          -6.3220    0.6570   -0.3790 c         2 GLY      0.901600
     21 O          -7.4040    1.1760   -0.1630 o         2 GLY     -0.829300
     22 OXT        -6.2470   -0.3100   -1.1190 o         2 GLY     -0.829300
     23 H           4.7040    0.6480    1.4080 hx        1 UNK      0.083700
     24 H1          4.5280    2.8030   -0.5680 hn        1 UNK      0.459800
     25 H2          5.4290    2.8410    0.8330 hn        1 UNK      0.459800
     26 H3          3.7660    2.7790    0.9130 hn        1 UNK      0.459800
     27 H4          3.4590   -0.6240   -0.3340 hc        1 UNK      0.092200
     28 H5          3.2720    0.8600   -1.2370 hc        1 UNK      0.092200
     29 H6          2.0800    1.8660    0.6640 hc        1 UNK      0.071200
     30 H7          2.2670    0.3830    1.5670 hc        1 UNK      0.071200
     31 H8         -0.3540    0.9530    1.3590 hn        1 UNK      0.308500
     32 H9         -1.3950   -0.0430   -1.1780 h1        1 UNK      0.105700
     33 H10        -2.5770   -1.9350   -0.1440 h1        1 UNK      0.138200
     34 H11        -1.7960   -1.5910    1.3800 h1        1 UNK      0.138200
     35 H          -4.0370   -0.3460   -0.7590 hn        2 GLY      0.298500
     36 HA1        -4.9400    2.2260   -0.0320 h1        2 GLY      0.060200
     37 HA2        -5.1800    1.1610    1.3330 h1        2 GLY      0.060200
@<TRIPOS>BOND
     1    1    2 1   
     2    2    3 1   
     3    2    4 1   
     4    4    5 1   
     5    4    6 1   
     6    6    7 1   
     7    7    8 1   
     8    8    9 2   
     9    8   10 1   
    10   10   11 1   
    11   11   12 1   
    12   11   16 1   
    13   12   13 1   
    14   13   14 1   
    15   14   15 2   
    16   16   17 2   
    17   16   18 1   
    18   18   19 1   
    19   19   20 1   
    20   20   21 1   
    21   20   22 1   
    22    4   23 1   
    23    5   24 1   
    24    5   25 1   
    25    5   26 1   
    26    6   27 1   
    27    6   28 1   
    28    7   29 1   
    29    7   30 1   
    30   10   31 1   
    31   11   32 1   
    32   12   33 1   
    33   12   34 1   
    34   18   35 1   
    35   19   36 1   
    36   19   37 1   
@<TRIPOS>SUBSTRUCTURE
     1 UNK         1 TEMP              0 ****  ****    0 ROOT
