@<TRIPOS>MOLECULE
HBY
   42    43     1     0     0
SMALL
bcc


@<TRIPOS>ATOM
      1 C          -0.0630   -0.3120   -1.9140 C.3       1 LIG      0.067700
      2 C1          1.2780   -0.9140   -2.2450 C.        1 LIG      0.382400
      3 C2          2.0730   -0.4090   -0.0510 C.a       1 LIG     -0.032400
      4 C3          0.7730   -0.1670    0.3970 C.a       1 LIG      0.079600
      5 C4          0.5560    0.3220    1.6720 C.a       1 LIG     -0.138000
      6 C5          1.6380    0.5860    2.5010 C.a       1 LIG      0.131100
      7 C6          2.9300    0.3480    2.0540 C.a       1 LIG     -0.195000
      8 C7          3.1480   -0.1480    0.7830 C.a       1 LIG     -0.108000
      9 C8         -1.5060   -0.7920    0.0120 C.        1 LIG      0.764100
     10 C9         -3.0000   -1.2820    1.8570 C.3       1 LIG      0.159100
     11 C10        -2.8220   -2.0330    3.1780 C.3       1 LIG     -0.112600
     12 C11        -3.8460   -0.0300    2.0920 C.3       1 LIG     -0.112600
     13 C12        -0.0740    1.1640   -2.3130 C.3       1 LIG     -0.042300
     14 C13        -1.4220    3.5890   -2.4780 C.3       1 LIG     -0.057000
     15 C14         2.7190    1.2320    4.3520 C.3       1 LIG      0.111700
     16 N          -0.2990   -0.4340   -0.4670 N.        1 LIG     -0.355000
     17 N1          2.2740   -0.9190   -1.3390 N.        1 LIG     -0.375100
     18 O          -2.4210   -1.0190   -0.7540 O.3       1 LIG     -0.584000
     19 O1         -1.6990   -0.8970    1.3400 O.2       1 LIG     -0.427900
     20 O2          1.4310    1.0730    3.7530 O.2       1 LIG     -0.320900
     21 S           1.5380   -1.6000   -3.7920 S.        1 LIG     -0.442400
     22 S1         -1.6890    1.8860   -1.9130 S.3       1 LIG     -0.265200
     23 H          -0.8330   -0.8270   -2.4500 H         1 LIG      0.132700
     24 H1         -0.4060    0.4900    2.0060 H         1 LIG      0.181000
     25 H2          3.7320    0.5420    2.6740 H         1 LIG      0.146000
     26 H3          4.1110   -0.3240    0.4550 H         1 LIG      0.141000
     27 H4         -3.4910   -1.9170    1.1490 H         1 LIG      0.075700
     28 H5         -2.3310   -1.3980    3.8860 H         1 LIG      0.051533
     29 H6         -2.2300   -2.9090    3.0130 H         1 LIG      0.051533
     30 H7         -3.7810   -2.3170    3.5590 H         1 LIG      0.051533
     31 H8         -3.3550    0.6050    2.8000 H         1 LIG      0.051533
     32 H9         -4.8050   -0.3140    2.4730 H         1 LIG      0.051533
     33 H10        -3.9700    0.4950    1.1680 H         1 LIG      0.051533
     34 H11         0.1050    1.2510   -3.3640 H         1 LIG      0.090700
     35 H12         0.6920    1.6840   -1.7770 H         1 LIG      0.090700
     36 H13        -2.3080    4.1640   -2.3080 H         1 LIG      0.073033
     37 H14        -1.1940    3.5860   -3.5230 H         1 LIG      0.073033
     38 H15        -0.6070    4.0210   -1.9360 H         1 LIG      0.073033
     39 H16         2.6060    1.6150    5.3450 H         1 LIG      0.047033
     40 H17         3.3010    1.9150    3.7700 H         1 LIG      0.047033
     41 H18         3.2140    0.2840    4.3900 H         1 LIG      0.047033
     42 H19         3.1540   -1.2860   -1.5850 H         1 LIG      0.344500
@<TRIPOS>BOND
     1    1    2 1   
     2    1   13 1   
     3    1   16 1   
     4    2   17 1   
     5    2   21 2   
     6    3    4 ar  
     7    3    8 ar  
     8    3   17 1   
     9    4    5 ar  
    10    4   16 1   
    11    5    6 ar  
    12    6    7 ar  
    13    6   20 1   
    14    7    8 ar  
    15    9   16 1   
    16    9   18 2   
    17    9   19 1   
    18   10   11 1   
    19   10   12 1   
    20   10   19 1   
    21   13   22 1   
    22   14   22 1   
    23   15   20 1   
    24    1   23 1   
    25    5   24 1   
    26    7   25 1   
    27    8   26 1   
    28   10   27 1   
    29   11   28 1   
    30   11   29 1   
    31   11   30 1   
    32   12   31 1   
    33   12   32 1   
    34   12   33 1   
    35   13   34 1   
    36   13   35 1   
    37   14   36 1   
    38   14   37 1   
    39   14   38 1   
    40   15   39 1   
    41   15   40 1   
    42   15   41 1   
    43   17   42 1   
@<TRIPOS>SUBSTRUCTURE
     1 LIG         1 TEMP              0 ****  ****    0 ROOT
