@<TRIPOS>MOLECULE
5XU
   13    12     1     0     0
SMALL
bcc


@<TRIPOS>ATOM
      1 N           0.4340    1.3900    0.0350 N.4       1 ALA     -0.834600
      2 CA          0.5180    0.0090   -0.4570 C.3       1 ALA     -0.016500
      3 C          -0.8030   -0.6830   -0.2410 C.        1 ALA      0.562900
      4 O          -1.7200   -0.0870    0.2710 O.3       1 ALA     -0.470100
      5 CB          1.6150   -0.7380    0.3040 C.3       1 ALA     -0.133100
      6 H1         -0.2970    1.8880   -0.4720 H         1 ALA      0.468800
      7 H2          1.3280    1.8580   -0.1110 H         1 ALA      0.468800
      8 H3          0.2130    1.3830    1.0310 H         1 ALA      0.468800
      9 HA          0.7500    0.0170   -1.5020 H         1 ALA      0.133700
     10 H          -0.9240   -1.6660   -0.5310 H         1 ALA      0.083200
     11 HB1         1.3830   -0.7460    1.3490 H         1 ALA      0.089033
     12 HB2         2.5530   -0.2470    0.1510 H         1 ALA      0.089033
     13 HB3         1.6760   -1.7440   -0.0550 H         1 ALA      0.089033
@<TRIPOS>BOND
     1    1    2 1   
     2    3    2 1   
     3    4    3 2   
     4    5    2 1   
     5    1    6 1   
     6    1    7 1   
     7    1    8 1   
     8    2    9 1   
     9    3   10 1   
    10    5   11 1   
    11    5   12 1   
    12    5   13 1   
@<TRIPOS>SUBSTRUCTURE
     1 ALA         1 TEMP              0 ****  ****    0 ROOT
