@<TRIPOS>MOLECULE
TZP
   21    21     1     0     0
SMALL
bcc


@<TRIPOS>ATOM
      1 N           0.6880   -0.6010    3.7820 N.c       1 LIG     -0.647000
      2 C          -0.5550   -0.7250    4.1820 C.d       1 LIG      0.325300
      3 S          -1.4310    0.0650    2.9070 S.3       1 LIG     -0.273300
      4 C1         -0.0210    0.5210    1.9080 C.d       1 LIG     -0.039700
      5 C2          0.9890    0.0100    2.6550 C.c       1 LIG      0.316600
      6 C3          2.4230    0.1450    2.2100 C.3       1 LIG     -0.165400
      7 C4          0.0290    1.2610    0.5960 C.3       1 LIG     -0.096100
      8 C5         -0.0500    0.2590   -0.5570 C.3       1 LIG      0.262400
      9 O          -0.0020    0.9610   -1.8010 O.2       1 LIG     -0.557200
     10 P          -0.0900   -0.1480   -2.9640 P.5       1 LIG      1.318900
     11 O1         -0.0410    0.5760   -4.4010 O.3       1 LIG     -0.930500
     12 O2         -1.3580   -0.8990   -2.8340 O.3       1 LIG     -0.930500
     13 O3          1.1510   -1.1640   -2.8330 O.3       1 LIG     -0.930500
     14 H          -0.9190   -1.1760    5.0360 H         1 LIG      0.012100
     15 H1          3.0650   -0.3200    2.9290 H         1 LIG      0.076033
     16 H2          2.6740    1.1820    2.1250 H         1 LIG      0.076033
     17 H3          2.5480   -0.3310    1.2600 H         1 LIG      0.076033
     18 H4          0.9460    1.8090    0.5300 H         1 LIG      0.068200
     19 H5         -0.7970    1.9390    0.5370 H         1 LIG      0.068200
     20 H6         -0.9670   -0.2890   -0.4910 H         1 LIG     -0.014800
     21 H7          0.7750   -0.4190   -0.4980 H         1 LIG     -0.014800
@<TRIPOS>BOND
     1    1    2 ar  
     2    1    5 ar  
     3    2    3 ar  
     4    3    4 ar  
     5    4    5 ar  
     6    4    7 1   
     7    5    6 1   
     8    7    8 1   
     9    8    9 1   
    10    9   10 1   
    11   10   11 1   
    12   10   12 1   
    13   10   13 1   
    14    2   14 1   
    15    6   15 1   
    16    6   16 1   
    17    6   17 1   
    18    7   18 1   
    19    7   19 1   
    20    8   20 1   
    21    8   21 1   
@<TRIPOS>SUBSTRUCTURE
     1 LIG         1 TEMP              0 ****  ****    0 ROOT
