@<TRIPOS>MOLECULE
6BX
   29    29     1     0     0
SMALL
bcc


@<TRIPOS>ATOM
      1 O           3.2970    0.3920    1.3000 O.3       1 LIG     -0.733867
      2 S           3.0730   -0.1890    0.0230 S.6       1 LIG      1.443800
      3 C           1.6450    0.5830   -0.7860 C.3       1 LIG     -0.325600
      4 C1          0.3670    0.2060   -0.0350 C.3       1 LIG      0.192100
      5 O1          0.4040    0.7650    1.2790 O.h       1 LIG     -0.684800
      6 C2         -0.8480    0.7530   -0.7880 C.3       1 LIG      0.104800
      7 N          -2.0780    0.3340   -0.1030 N.4       1 LIG     -0.679400
      8 C3         -3.2130    1.1840   -0.4920 C.3       1 LIG      0.070300
      9 C4         -4.4570    0.7520    0.2870 C.3       1 LIG      0.099900
     10 O2         -4.7100   -0.6340    0.0420 O.2       1 LIG     -0.387600
     11 C5         -3.6250   -1.4910    0.4100 C.3       1 LIG      0.099900
     12 C6         -2.3720   -1.0810   -0.3680 C.3       1 LIG      0.070300
     13 O3          4.2680    0.2570   -0.8070 O.3       1 LIG     -0.733867
     14 O4          3.0370   -1.6000   -0.1430 O.3       1 LIG     -0.733867
     15 H           1.5790    0.2390   -1.7970 H         1 LIG      0.085700
     16 H1          1.7630    1.6470   -0.7780 H         1 LIG      0.085700
     17 H2          0.2950   -0.8590    0.0330 H         1 LIG      0.067700
     18 H3          0.4700    1.7310    1.2180 H         1 LIG      0.497000
     19 H4         -0.8490    0.3720   -1.7880 H         1 LIG      0.097700
     20 H5         -0.8000    1.8220   -0.8140 H         1 LIG      0.097700
     21 H6         -1.9300    0.4440    0.9000 H         1 LIG      0.470800
     22 H7         -3.3940    1.0800   -1.5410 H         1 LIG      0.111700
     23 H8         -2.9880    2.2060   -0.2710 H         1 LIG      0.111700
     24 H9         -5.2980    1.3310   -0.0330 H         1 LIG      0.087200
     25 H10        -4.2970    0.9080    1.3330 H         1 LIG      0.087200
     26 H11        -3.8750   -2.5050    0.1770 H         1 LIG      0.087200
     27 H12        -3.4400   -1.4050    1.4600 H         1 LIG      0.087200
     28 H13        -1.5440   -1.6830   -0.0560 H         1 LIG      0.111700
     29 H14        -2.5380   -1.2230   -1.4150 H         1 LIG      0.111700
@<TRIPOS>BOND
     1    1    2 1   
     2    2   13 1   
     3    2    3 1   
     4    3    4 1   
     5    4    6 1   
     6    5    4 1   
     7    6    7 1   
     8    7   12 1   
     9    8    7 1   
    10    8    9 1   
    11    9   10 1   
    12   10   11 1   
    13   12   11 1   
    14   14    2 1   
    15    3   15 1   
    16    3   16 1   
    17    4   17 1   
    18    5   18 1   
    19    6   19 1   
    20    6   20 1   
    21    7   21 1   
    22    8   22 1   
    23    8   23 1   
    24    9   24 1   
    25    9   25 1   
    26   11   26 1   
    27   11   27 1   
    28   12   28 1   
    29   12   29 1   
@<TRIPOS>SUBSTRUCTURE
     1 LIG         1 TEMP              0 ****  ****    0 ROOT
