@<TRIPOS>MOLECULE
CCC
   34    36     1     0     0
SMALL
bcc


@<TRIPOS>ATOM
      1 P          -3.4830    0.0520    1.0730 P.5       1 LIG      1.411800
      2 O          -4.5810   -0.9290    1.2240 O.3       1 LIG     -0.831500
      3 O1         -3.9540    1.5520    1.4180 O.3       1 LIG     -0.831500
      4 P1          1.2140    0.0160   -4.3690 P.5       1 LIG      1.327900
      5 O2          1.8250    1.3290   -4.0650 O.3       1 LIG     -0.929833
      6 O3          2.2670   -0.8890   -5.1830 O.3       1 LIG     -0.929833
      7 O4         -0.1080    0.2340   -5.2620 O.3       1 LIG     -0.929833
      8 O5          0.8180   -0.7230   -2.9950 O.2       1 LIG     -0.564200
      9 C          -0.1130    0.1260   -2.3230 C.3       1 LIG      0.212400
     10 C1         -0.5320   -0.5220   -1.0010 C.3       1 LIG      0.095100
     11 O6          0.6130   -0.6910   -0.1390 O.2       1 LIG     -0.401600
     12 C2         -1.4800    0.4120   -0.2180 C.3       1 LIG      0.125100
     13 O7         -2.8360   -0.0250   -0.4220 O.2       1 LIG     -0.564200
     14 C3         -1.0760    0.2070    1.2590 C.3       1 LIG      0.132100
     15 O8         -2.1920   -0.3740    1.9760 O.2       1 LIG     -0.552200
     16 C4          0.0710   -0.8250    1.1920 C.3       1 LIG      0.277500
     17 N           1.0950   -0.5150    2.1930 N.        1 LIG     -0.367000
     18 C5          1.7120    0.6800    2.1710 C.        1 LIG      0.809900
     19 O9          1.4110    1.4950    1.3150 O.3       1 LIG     -0.686500
     20 N1          2.6460    0.9870    3.0690 N.c       1 LIG     -0.783100
     21 C6          2.9930    0.1200    4.0110 C.d       1 LIG      0.675500
     22 N2          3.9590    0.4490    4.9330 N.h       1 LIG     -0.886800
     23 C7          2.3690   -1.1430    4.0580 C.d       1 LIG     -0.448600
     24 C8          1.4170   -1.4390    3.1420 C.c       1 LIG      0.098600
     25 H          -0.9760    0.2680   -2.9400 H         1 LIG     -0.001800
     26 H1          0.3450    1.0730   -2.1270 H         1 LIG     -0.001800
     27 H2         -0.9960   -1.4540   -1.2470 H         1 LIG      0.072700
     28 H3         -1.4140    1.4360   -0.5200 H         1 LIG      0.058700
     29 H4         -0.7950    1.1160    1.7480 H         1 LIG      0.052700
     30 H5         -0.2680   -1.8200    1.3920 H         1 LIG      0.102700
     31 H6          4.3930    1.3320    4.8970 H         1 LIG      0.370300
     32 H7          4.2160   -0.1990    5.6280 H         1 LIG      0.370300
     33 H8          2.6340   -1.8320    4.7800 H         1 LIG      0.206000
     34 H9          0.9400   -2.3540    3.1620 H         1 LIG      0.312000
@<TRIPOS>BOND
     1    1    2 1   
     2    1    3 1   
     3    1   13 1   
     4    1   15 1   
     5    4    5 1   
     6    4    6 1   
     7    4    7 1   
     8    4    8 1   
     9    8    9 1   
    10    9   10 1   
    11   10   11 1   
    12   10   12 1   
    13   11   16 1   
    14   12   13 1   
    15   12   14 1   
    16   14   15 1   
    17   14   16 1   
    18   16   17 1   
    19   17   18 1   
    20   17   24 1   
    21   18   19 2   
    22   18   20 1   
    23   20   21 2   
    24   21   22 1   
    25   21   23 1   
    26   23   24 2   
    27    9   25 1   
    28    9   26 1   
    29   10   27 1   
    30   12   28 1   
    31   14   29 1   
    32   16   30 1   
    33   22   31 1   
    34   22   32 1   
    35   23   33 1   
    36   24   34 1   
@<TRIPOS>SUBSTRUCTURE
     1 LIG         1 TEMP              0 ****  ****    0 ROOT
