@<TRIPOS>MOLECULE
GHP
   21    21     1     0     0
SMALL
bcc


@<TRIPOS>ATOM
      1 N          -1.8890    1.5670    1.0560 n4        1 LIG     -0.836600
      2 CA         -1.5080    0.1690    0.8140 c3        1 LIG     -0.012200
      3 C          -2.3200   -0.3820   -0.3300 c         1 LIG      0.938600
      4 O          -2.8510    0.3710   -1.1110 o         1 LIG     -0.754800
      5 OXT        -2.4530   -1.7090   -0.4800 o         1 LIG     -0.754800
      6 C1         -0.0430    0.1000    0.4700 ca        1 LIG     -0.163300
      7 C2          0.7360   -0.9260    0.9720 ca        1 LIG     -0.067000
      8 C3          2.0800   -0.9920    0.6580 ca        1 LIG     -0.192500
      9 C4          2.6470   -0.0280   -0.1630 ca        1 LIG      0.146100
     10 O1          3.9690   -0.0900   -0.4740 oh        1 LIG     -0.491100
     11 C5          1.8630    1.0000   -0.6660 ca        1 LIG     -0.192500
     12 C6          0.5190    1.0590   -0.3530 ca        1 LIG     -0.067000
     13 H1         -2.8810    1.6140    1.2890 hn        1 LIG      0.442467
     14 H2         -1.7110    2.1180    0.2160 hn        1 LIG      0.442467
     15 H3         -1.3400    1.9400    1.8310 hn        1 LIG      0.442467
     16 HA         -1.6950   -0.4090    1.6950 hx        1 LIG      0.092700
     17 H           0.3130   -1.6430    1.5820 ha        1 LIG      0.154000
     18 H4          2.6610   -1.7570    1.0340 ha        1 LIG      0.149000
     19 H5          4.4980   -0.7840   -0.1340 ho        1 LIG      0.423000
     20 H6          2.2840    1.7200   -1.2740 ha        1 LIG      0.149000
     21 H7         -0.0660    1.8190   -0.7340 ha        1 LIG      0.154000
@<TRIPOS>BOND
     1    1    2 1   
     2    2    3 1   
     3    2    6 1   
     4    3    4 1   
     5    3    5 1   
     6    6    7 ar  
     7    6   12 ar  
     8    7    8 ar  
     9    8    9 ar  
    10    9   10 1   
    11    9   11 ar  
    12   11   12 ar  
    13    1   13 1   
    14    1   14 1   
    15    1   15 1   
    16    2   16 1   
    17    7   17 1   
    18    8   18 1   
    19   10   19 1   
    20   11   20 1   
    21   12   21 1   
@<TRIPOS>SUBSTRUCTURE
     1 LIG         1 TEMP              0 ****  ****    0 ROOT
