@<TRIPOS>MOLECULE
MYR
   43    42     1     0     0
SMALL
bcc


@<TRIPOS>ATOM
      1 C           6.9630   -0.1210    0.0010 c         1 LIG      0.907600
      2 O           6.8890   -1.3270    0.0010 o         1 LIG     -0.853800
      3 O1          8.1650    0.4770   -0.0040 o         1 LIG     -0.853800
      4 C1          5.7070    0.7120    0.0020 c3        1 LIG     -0.193400
      5 C2          4.4850   -0.2090    0.0010 c3        1 LIG     -0.065400
      6 C3          3.2100    0.6370    0.0010 c3        1 LIG     -0.078400
      7 C4          1.9880   -0.2840    0.0010 c3        1 LIG     -0.078400
      8 C5          0.7120    0.5610    0.0010 c3        1 LIG     -0.078400
      9 C6         -0.5100   -0.3590    0.0000 c3        1 LIG     -0.079400
     10 C7         -1.7850    0.4860    0.0010 c3        1 LIG     -0.078400
     11 C8         -3.0070   -0.4350   -0.0000 c3        1 LIG     -0.079400
     12 C9         -4.2820    0.4100    0.0000 c3        1 LIG     -0.078400
     13 C10        -5.5040   -0.5100   -0.0010 c3        1 LIG     -0.079400
     14 C11        -6.7800    0.3350   -0.0000 c3        1 LIG     -0.079400
     15 C12        -8.0020   -0.5860   -0.0010 c3        1 LIG     -0.080400
     16 C13        -9.2770    0.2600   -0.0010 c3        1 LIG     -0.092100
     17 H           5.6880    1.3310   -0.8710 hc        1 LIG      0.018700
     18 H1          5.6880    1.3290    0.8760 hc        1 LIG      0.018700
     19 H2          4.5030   -0.8270    0.8740 hc        1 LIG      0.043700
     20 H3          4.5040   -0.8260   -0.8730 hc        1 LIG      0.043700
     21 H4          3.1920    1.2540   -0.8730 hc        1 LIG      0.025700
     22 H5          3.1910    1.2550    0.8740 hc        1 LIG      0.025700
     23 H6          2.0070   -0.9010    0.8750 hc        1 LIG      0.036700
     24 H7          2.0070   -0.9010   -0.8730 hc        1 LIG      0.036700
     25 H8          0.6940    1.1790   -0.8720 hc        1 LIG      0.034200
     26 H9          0.6930    1.1780    0.8750 hc        1 LIG      0.034200
     27 H10        -0.4910   -0.9780    0.8730 hc        1 LIG      0.037200
     28 H11        -0.4910   -0.9750   -0.8750 hc        1 LIG      0.037200
     29 H12        -1.8040    1.1050   -0.8720 hc        1 LIG      0.036700
     30 H13        -1.8040    1.1030    0.8750 hc        1 LIG      0.036700
     31 H14        -2.9890   -1.0530    0.8730 hc        1 LIG      0.038200
     32 H15        -2.9880   -1.0520   -0.8740 hc        1 LIG      0.038200
     33 H16        -4.3000    1.0280   -0.8730 hc        1 LIG      0.037700
     34 H17        -4.3010    1.0270    0.8740 hc        1 LIG      0.037700
     35 H18        -5.4850   -1.1290    0.8720 hc        1 LIG      0.038700
     36 H19        -5.4850   -1.1260   -0.8760 hc        1 LIG      0.038700
     37 H20        -6.7990    0.9540   -0.8730 hc        1 LIG      0.038700
     38 H21        -6.7990    0.9510    0.8740 hc        1 LIG      0.038700
     39 H22        -7.9840   -1.2040    0.8720 hc        1 LIG      0.037700
     40 H23        -7.9830   -1.2030   -0.8750 hc        1 LIG      0.037700
     41 H24        -9.2960    0.8770    0.8730 hc        1 LIG      0.030700
     42 H25       -10.1320   -0.3830   -0.0010 hc        1 LIG      0.030700
     43 H26        -9.2950    0.8780   -0.8750 hc        1 LIG      0.030700
@<TRIPOS>BOND
     1    1    2 1   
     2    1    3 1   
     3    1    4 1   
     4    4    5 1   
     5    5    6 1   
     6    6    7 1   
     7    7    8 1   
     8    8    9 1   
     9    9   10 1   
    10   10   11 1   
    11   11   12 1   
    12   12   13 1   
    13   13   14 1   
    14   14   15 1   
    15   15   16 1   
    16    4   17 1   
    17    4   18 1   
    18    5   19 1   
    19    5   20 1   
    20    6   21 1   
    21    6   22 1   
    22    7   23 1   
    23    7   24 1   
    24    8   25 1   
    25    8   26 1   
    26    9   27 1   
    27    9   28 1   
    28   10   29 1   
    29   10   30 1   
    30   11   31 1   
    31   11   32 1   
    32   12   33 1   
    33   12   34 1   
    34   13   35 1   
    35   13   36 1   
    36   14   37 1   
    37   14   38 1   
    38   15   39 1   
    39   15   40 1   
    40   16   41 1   
    41   16   42 1   
    42   16   43 1   
@<TRIPOS>SUBSTRUCTURE
     1 LIG         1 TEMP              0 ****  ****    0 ROOT
