@<TRIPOS>MOLECULE
PHL
   25    25     1     0     0
SMALL
bcc


@<TRIPOS>ATOM
      1 N           1.4940    1.2990    0.5690 N.4       1 PHE     -0.833600
      2 CA          1.6030   -0.0890    0.1010 C.3       1 PHE      0.116500
      3 C           3.0220   -0.3430   -0.4140 C.3       1 PHE      0.110400
      4 O           3.9480   -0.2350    0.6690 O.h       1 PHE     -0.633800
      5 CB          0.6000   -0.3260   -1.0300 C.3       1 PHE     -0.056100
      6 CG         -0.8020   -0.1960   -0.4940 C.a       1 PHE     -0.158300
      7 CD1        -1.4340    1.0330   -0.5030 C.a       1 PHE     -0.135500
      8 CD2        -1.4580   -1.3070    0.0020 C.a       1 PHE     -0.135500
      9 CE1        -2.7200    1.1520   -0.0110 C.a       1 PHE     -0.111500
     10 CE2        -2.7440   -1.1880    0.4950 C.a       1 PHE     -0.111500
     11 CZ         -3.3740    0.0420    0.4900 C.a       1 PHE     -0.098000
     12 H1          2.1630    1.4570    1.3230 H         1 PHE      0.464800
     13 H2          0.5480    1.4690    0.9120 H         1 PHE      0.464800
     14 H3          1.6950    1.9350   -0.2030 H         1 PHE      0.464800
     15 HA          1.3920   -0.7560    0.9100 H         1 PHE      0.119700
     16 H4          3.2640    0.3810   -1.1640 H         1 PHE      0.074200
     17 H5          3.0780   -1.3250   -0.8350 H         1 PHE      0.074200
     18 H           3.8970    0.6550    1.0500 H         1 PHE      0.456000
     19 HB1         0.7390   -1.3090   -1.4300 H         1 PHE      0.091700
     20 HB2         0.7550    0.3990   -1.8020 H         1 PHE      0.091700
     21 HD1        -0.9460    1.8620   -0.8770 H         1 PHE      0.135000
     22 HD2        -0.9880   -2.2260    0.0040 H         1 PHE      0.135000
     23 HE1        -3.1920    2.0700   -0.0180 H         1 PHE      0.157000
     24 HE2        -3.2330   -2.0170    0.8670 H         1 PHE      0.157000
     25 HZ         -4.3330    0.1320    0.8600 H         1 PHE      0.160000
@<TRIPOS>BOND
     1    1    2 1   
     2    2    3 1   
     3    2    5 1   
     4    3    4 1   
     5    5    6 1   
     6    6    7 ar  
     7    6    8 ar  
     8    7    9 ar  
     9    8   10 ar  
    10    9   11 ar  
    11   10   11 ar  
    12    1   12 1   
    13    1   13 1   
    14    1   14 1   
    15    2   15 1   
    16    3   16 1   
    17    3   17 1   
    18    4   18 1   
    19    5   19 1   
    20    5   20 1   
    21    7   21 1   
    22    8   22 1   
    23    9   23 1   
    24   10   24 1   
    25   11   25 1   
@<TRIPOS>SUBSTRUCTURE
     1 PHE         1 TEMP              0 ****  ****    0 ROOT
