@<TRIPOS>MOLECULE
AQD
   54    56     1     0     0
SMALL
bcc


@<TRIPOS>ATOM
      1 C           4.5880   -3.5410    0.0540 C.3       1 LIG      0.111700
      2 O           3.4300   -2.7070    0.1160 O.2       1 LIG     -0.319900
      3 C1          3.6310   -1.3670    0.0430 C.a       1 LIG      0.237100
      4 C2          4.9120   -0.8630   -0.0910 C.a       1 LIG     -0.297000
      5 C3          5.1120    0.5100   -0.1660 C.a       1 LIG      0.276600
      6 N           6.4000    1.0170   -0.3010 N.h       1 LIG     -0.760600
      7 C4          7.5440    0.1040   -0.3650 C.3       1 LIG      0.198100
      8 C5          4.0250    1.3820   -0.1050 C.a       1 LIG     -0.113600
      9 Cl          4.2860    3.0950   -0.2000 C.l       1 LIG     -0.087400
     10 C6          2.7560    0.8940    0.0260 C.a       1 LIG     -0.017000
     11 C7          2.5390   -0.4860    0.0980 C.a       1 LIG     -0.260600
     12 C8          1.1710   -1.0130    0.2350 C.        1 LIG      0.704700
     13 O1          0.9850   -2.2130    0.3010 O.3       1 LIG     -0.568100
     14 N1          0.1250   -0.1650    0.2870 N.        1 LIG     -0.590900
     15 C9         -1.2360   -0.6890    0.4240 C.3       1 LIG      0.097700
     16 C10        -2.1900    0.4020    0.9550 C.3       1 LIG      0.116500
     17 C11        -1.5980    1.7870    0.6860 C.3       1 LIG     -0.125100
     18 C12        -1.8350   -1.0300   -0.9660 C.3       1 LIG     -0.120400
     19 C13        -3.3540   -0.8900   -0.6960 C.3       1 LIG      0.113800
     20 N2         -3.4680    0.2530    0.2350 N.4       1 LIG     -0.694400
     21 C14        -4.5820    0.0590    1.1730 C.3       1 LIG      0.175100
     22 C15        -5.8880    0.1570    0.4280 C.a       1 LIG     -0.177300
     23 C16        -6.5150    1.3820    0.2900 C.a       1 LIG     -0.106500
     24 C17        -7.7140    1.4710   -0.3930 C.a       1 LIG     -0.117000
     25 C18        -8.2860    0.3370   -0.9370 C.a       1 LIG     -0.084000
     26 C19        -7.6590   -0.8870   -0.7990 C.a       1 LIG     -0.117000
     27 C20        -6.4570   -0.9760   -0.1210 C.a       1 LIG     -0.106500
     28 H           4.2930   -4.5670    0.1220 H         1 LIG      0.055367
     29 H1          5.2420   -3.3040    0.8670 H         1 LIG      0.055367
     30 H2          5.0970   -3.3770   -0.8730 H         1 LIG      0.055367
     31 H3          5.7180   -1.5060   -0.1350 H         1 LIG      0.157000
     32 H4          6.5430    1.9900   -0.3540 H         1 LIG      0.451800
     33 H5          7.1990   -0.9060   -0.2930 H         1 LIG      0.049700
     34 H6          8.2120    0.3110    0.4450 H         1 LIG      0.049700
     35 H7          8.0570    0.2400   -1.2940 H         1 LIG      0.049700
     36 H8          1.9560    1.5440    0.0720 H         1 LIG      0.140000
     37 H9          0.2760    0.8060    0.2330 H         1 LIG      0.313500
     38 H10        -1.1610   -1.5370    1.0720 H         1 LIG      0.121700
     39 H11        -2.3350    0.3000    2.0100 H         1 LIG      0.100700
     40 H12        -1.4450    1.9110   -0.3660 H         1 LIG      0.080700
     41 H13        -0.6620    1.8800    1.1960 H         1 LIG      0.080700
     42 H14        -2.2730    2.5380    1.0390 H         1 LIG      0.080700
     43 H15        -1.5820   -2.0260   -1.2660 H         1 LIG      0.094200
     44 H16        -1.4750   -0.4080   -1.7590 H         1 LIG      0.094200
     45 H17        -3.7410   -1.7810   -0.2480 H         1 LIG      0.101200
     46 H18        -3.9120   -0.7350   -1.5960 H         1 LIG      0.101200
     47 H19        -3.6650    1.1040   -0.2910 H         1 LIG      0.445800
     48 H20        -4.5460    0.8140    1.9310 H         1 LIG      0.102700
     49 H21        -4.5020   -0.9060    1.6270 H         1 LIG      0.102700
     50 H22        -6.0880    2.2290    0.6970 H         1 LIG      0.136000
     51 H23        -8.1820    2.3850   -0.4960 H         1 LIG      0.157500
     52 H24        -9.1810    0.4040   -1.4460 H         1 LIG      0.159000
     53 H25        -8.0880   -1.7350   -1.2020 H         1 LIG      0.157500
     54 H26        -5.9850   -1.8890   -0.0250 H         1 LIG      0.136000
@<TRIPOS>BOND
     1    1    2 1   
     2    2    3 1   
     3    3   11 ar  
     4    3    4 ar  
     5    4    5 ar  
     6    5    8 ar  
     7    5    6 1   
     8    6    7 1   
     9    8    9 1   
    10   10    8 ar  
    11   11   10 ar  
    12   12   13 2   
    13   12   11 1   
    14   14   12 1   
    15   15   18 1   
    16   15   14 1   
    17   16   20 1   
    18   16   15 1   
    19   17   16 1   
    20   19   18 1   
    21   20   19 1   
    22   21   20 1   
    23   22   21 1   
    24   22   27 ar  
    25   23   22 ar  
    26   24   23 ar  
    27   24   25 ar  
    28   25   26 ar  
    29   26   27 ar  
    30    1   28 1   
    31    1   29 1   
    32    1   30 1   
    33    4   31 1   
    34    6   32 1   
    35    7   33 1   
    36    7   34 1   
    37    7   35 1   
    38   10   36 1   
    39   14   37 1   
    40   15   38 1   
    41   16   39 1   
    42   17   40 1   
    43   17   41 1   
    44   17   42 1   
    45   18   43 1   
    46   18   44 1   
    47   19   45 1   
    48   19   46 1   
    49   20   47 1   
    50   21   48 1   
    51   21   49 1   
    52   23   50 1   
    53   24   51 1   
    54   25   52 1   
    55   26   53 1   
    56   27   54 1   
@<TRIPOS>SUBSTRUCTURE
     1 LIG         1 TEMP              0 ****  ****    0 ROOT
