@<TRIPOS>MOLECULE
HAI
   21    21     1     0     0
SMALL
bcc


@<TRIPOS>ATOM
      1 C          -0.9610    0.0000    0.3460 C.3       1 LIG      0.119500
      2 C1         -0.2660   -1.2490   -0.2000 C.3       1 LIG     -0.101400
      3 C2          1.2000   -1.2490    0.2370 C.3       1 LIG     -0.078400
      4 C3          1.8950    0.0000   -0.3090 C.3       1 LIG     -0.092400
      5 C4          1.2000    1.2490    0.2370 C.3       1 LIG     -0.078400
      6 C5         -0.2660    1.2490   -0.2000 C.3       1 LIG     -0.101400
      7 N          -2.3690    0.0000   -0.0730 N.4       1 LIG     -0.844600
      8 H          -0.9070    0.0000    1.4150 H         1 LIG      0.112700
      9 H1         -0.3200   -1.2490   -1.2690 H         1 LIG      0.066700
     10 H2         -0.7520   -2.1230    0.1810 H         1 LIG      0.066700
     11 H3          1.6860   -2.1230   -0.1440 H         1 LIG      0.071200
     12 H4          1.2540   -1.2490    1.3060 H         1 LIG      0.071200
     13 H5          1.8410    0.0000   -1.3780 H         1 LIG      0.070200
     14 H6          2.9210    0.0000   -0.0040 H         1 LIG      0.070200
     15 H7          1.6860    2.1230   -0.1440 H         1 LIG      0.071200
     16 H8          1.2540    1.2490    1.3060 H         1 LIG      0.071200
     17 H9         -0.7520    2.1230    0.1810 H         1 LIG      0.066700
     18 H10        -0.3200    1.2490   -1.2690 H         1 LIG      0.066700
     19 H11        -2.4210    0.0000   -1.0920 H         1 LIG      0.457800
     20 H12        -2.8320    0.8330    0.2910 H         1 LIG      0.457800
     21 H13        -2.8320   -0.8330    0.2910 H         1 LIG      0.457800
@<TRIPOS>BOND
     1    1    2 1   
     2    1    6 1   
     3    1    7 1   
     4    2    3 1   
     5    3    4 1   
     6    4    5 1   
     7    5    6 1   
     8    1    8 1   
     9    2    9 1   
    10    2   10 1   
    11    3   11 1   
    12    3   12 1   
    13    4   13 1   
    14    4   14 1   
    15    5   15 1   
    16    5   16 1   
    17    6   17 1   
    18    6   18 1   
    19    7   19 1   
    20    7   20 1   
    21    7   21 1   
@<TRIPOS>SUBSTRUCTURE
     1 LIG         1 TEMP              0 ****  ****    0 ROOT
