@<TRIPOS>MOLECULE
OCP
   98    97     1     0     0
SMALL
bcc


@<TRIPOS>ATOM
      1 P           2.6710    0.2210   -3.3140 P.5       1 LIG      1.563300
      2 O           1.8280   -0.2340   -2.0200 O.2       1 LIG     -0.595200
      3 O1          4.1450   -0.4230   -3.2480 O.h       1 LIG     -0.778400
      4 O2          2.7790    1.6970   -3.3380 O.3       1 LIG     -0.857300
      5 O3          0.4570    0.4210    0.3740 O.2       1 LIG     -0.455900
      6 O4         -0.3770   -1.3580   -0.6550 O.3       1 LIG     -0.573000
      7 O5          1.8340   -0.0320    2.8260 O.2       1 LIG     -0.449900
      8 O6          3.3580    0.9390    4.1140 O.3       1 LIG     -0.576000
      9 C           2.5390    0.2410   -0.8750 C.3       1 LIG      0.166400
     10 C1          1.7870   -0.1600    0.3940 C.3       1 LIG      0.136100
     11 C2          2.5480    0.3480    1.6200 C.3       1 LIG      0.129400
     12 C3          1.8250   -0.3510   -4.8230 C.3       1 LIG     -0.400600
     13 C4          2.6260    0.0810   -6.0530 C.3       1 LIG     -0.073400
     14 C5          1.9160   -0.3980   -7.3200 C.3       1 LIG     -0.071400
     15 C6          2.7170    0.0340   -8.5490 C.3       1 LIG     -0.080400
     16 C7          2.0070   -0.4460   -9.8160 C.3       1 LIG     -0.078400
     17 C8          2.8080   -0.0130  -11.0450 C.3       1 LIG     -0.079400
     18 C9          2.0970   -0.4930  -12.3120 C.3       1 LIG     -0.080400
     19 C10         2.8990   -0.0600  -13.5420 C.3       1 LIG     -0.093100
     20 C11         2.3210    0.3100    4.0330 C.        1 LIG      0.725100
     21 N           1.6590   -0.0430    5.1520 N.        1 LIG     -0.509900
     22 C12         2.1880    0.3290    6.4660 C.3       1 LIG      0.076000
     23 C13         1.2530   -0.1890    7.5600 C.3       1 LIG     -0.114400
     24 C14         1.8060    0.2000    8.9320 C.3       1 LIG     -0.076400
     25 C15         0.8710   -0.3190   10.0250 C.3       1 LIG     -0.079400
     26 C16         1.4240    0.0700   11.3980 C.3       1 LIG     -0.079400
     27 C17         0.4880   -0.4490   12.4910 C.3       1 LIG     -0.079400
     28 C18         1.0420   -0.0590   13.8630 C.3       1 LIG     -0.080400
     29 C19         0.1060   -0.5780   14.9570 C.3       1 LIG     -0.093100
     30 C20        -0.5660   -0.2580   -0.1760 C.        1 LIG      0.720100
     31 N1         -1.8010    0.2820   -0.1940 N.        1 LIG     -0.508900
     32 C21        -2.9150   -0.4560   -0.7940 C.3       1 LIG      0.073000
     33 C22        -4.1950    0.3730   -0.6850 C.3       1 LIG     -0.114400
     34 C23        -5.3580   -0.3980   -1.3110 C.3       1 LIG     -0.076400
     35 C24        -6.6390    0.4320   -1.2020 C.3       1 LIG     -0.079400
     36 C25        -7.8020   -0.3390   -1.8280 C.3       1 LIG     -0.079400
     37 C26        -9.0820    0.4910   -1.7190 C.3       1 LIG     -0.079400
     38 C27       -10.2460   -0.2800   -2.3450 C.3       1 LIG     -0.080400
     39 C28       -11.5260    0.5490   -2.2360 C.3       1 LIG     -0.093100
     40 H           4.5950   -0.1180   -2.4450 H         1 LIG      0.476000
     41 H1          2.6180    1.3070   -0.9210 H         1 LIG      0.080700
     42 H2          3.5190   -0.1890   -0.8600 H         1 LIG      0.080700
     43 H3          1.7090   -1.2260    0.4400 H         1 LIG      0.104700
     44 H4          3.5270   -0.0820    1.6350 H         1 LIG      0.071700
     45 H5          2.6270    1.4140    1.5740 H         1 LIG      0.071700
     46 H6          0.8460    0.0780   -4.8670 H         1 LIG      0.120700
     47 H7          1.7470   -1.4180   -4.8050 H         1 LIG      0.120700
     48 H8          3.6050   -0.3480   -6.0090 H         1 LIG      0.060200
     49 H9          2.7040    1.1480   -6.0700 H         1 LIG      0.060200
     50 H10         0.9370    0.0310   -7.3640 H         1 LIG      0.043700
     51 H11         1.8380   -1.4650   -7.3030 H         1 LIG      0.043700
     52 H12         3.6960   -0.3950   -8.5050 H         1 LIG      0.043200
     53 H13         2.7950    1.1010   -8.5670 H         1 LIG      0.043200
     54 H14         1.0270   -0.0180   -9.8600 H         1 LIG      0.039700
     55 H15         1.9300   -1.5130   -9.7990 H         1 LIG      0.039700
     56 H16         3.7880   -0.4420  -11.0020 H         1 LIG      0.040700
     57 H17         2.8860    1.0540  -11.0620 H         1 LIG      0.040700
     58 H18         1.1180   -0.0640  -12.3560 H         1 LIG      0.038200
     59 H19         2.0190   -1.5600  -12.2950 H         1 LIG      0.038200
     60 H20         2.9770    1.0070  -13.5590 H         1 LIG      0.032700
     61 H21         2.4020   -0.3960  -14.4280 H         1 LIG      0.032700
     62 H22         3.8780   -0.4890  -13.4980 H         1 LIG      0.032700
     63 H23         0.8190   -0.5520    5.0860 H         1 LIG      0.311500
     64 H24         2.2590    1.3950    6.5330 H         1 LIG      0.070200
     65 H25         3.1590   -0.1030    6.5940 H         1 LIG      0.070200
     66 H26         1.1820   -1.2550    7.4930 H         1 LIG      0.048200
     67 H27         0.2820    0.2420    7.4320 H         1 LIG      0.048200
     68 H28         1.8760    1.2660    8.9990 H         1 LIG      0.043700
     69 H29         2.7770   -0.2300    9.0600 H         1 LIG      0.043700
     70 H30         0.8010   -1.3850    9.9580 H         1 LIG      0.041700
     71 H31        -0.1000    0.1120    9.8970 H         1 LIG      0.041700
     72 H32         1.4940    1.1360   11.4650 H         1 LIG      0.040200
     73 H33         2.3950   -0.3610   11.5260 H         1 LIG      0.040200
     74 H34         0.4180   -1.5150   12.4240 H         1 LIG      0.040200
     75 H35        -0.4830   -0.0190   12.3630 H         1 LIG      0.040200
     76 H36         1.1120    1.0070   13.9300 H         1 LIG      0.038700
     77 H37         2.0130   -0.4890   13.9910 H         1 LIG      0.038700
     78 H38        -0.8650   -0.1480   14.8290 H         1 LIG      0.032700
     79 H39         0.4930   -0.3050   15.9160 H         1 LIG      0.032700
     80 H40         0.0360   -1.6440   14.8900 H         1 LIG      0.032700
     81 H41        -1.9540    1.1730    0.1960 H         1 LIG      0.312500
     82 H42        -3.0460   -1.3840   -0.2780 H         1 LIG      0.070700
     83 H43        -2.7010   -0.6470   -1.8250 H         1 LIG      0.070700
     84 H44        -4.0640    1.3010   -1.2010 H         1 LIG      0.049200
     85 H45        -4.4090    0.5650    0.3460 H         1 LIG      0.049200
     86 H46        -5.4890   -1.3260   -0.7950 H         1 LIG      0.043700
     87 H47        -5.1440   -0.5900   -2.3420 H         1 LIG      0.043700
     88 H48        -6.5080    1.3600   -1.7180 H         1 LIG      0.042200
     89 H49        -6.8530    0.6240   -0.1710 H         1 LIG      0.042200
     90 H50        -7.9340   -1.2670   -1.3120 H         1 LIG      0.039700
     91 H51        -7.5880   -0.5310   -2.8590 H         1 LIG      0.039700
     92 H52        -8.9500    1.4190   -2.2350 H         1 LIG      0.040200
     93 H53        -9.2950    0.6830   -0.6880 H         1 LIG      0.040200
     94 H54       -10.3770   -1.2080   -1.8290 H         1 LIG      0.038200
     95 H55       -10.0330   -0.4710   -3.3760 H         1 LIG      0.038200
     96 H56       -11.7400    0.7410   -1.2050 H         1 LIG      0.033033
     97 H57       -12.3390    0.0090   -2.6750 H         1 LIG      0.033033
     98 H58       -11.3950    1.4770   -2.7520 H         1 LIG      0.033033
@<TRIPOS>BOND
     1    1    2 1   
     2    1    3 1   
     3    1    4 2   
     4    1   12 1   
     5    2    9 1   
     6    5   10 1   
     7    5   30 1   
     8    6   30 2   
     9    7   11 1   
    10    7   20 1   
    11    8   20 2   
    12    9   10 1   
    13   10   11 1   
    14   12   13 1   
    15   13   14 1   
    16   14   15 1   
    17   15   16 1   
    18   16   17 1   
    19   17   18 1   
    20   18   19 1   
    21   20   21 1   
    22   21   22 1   
    23   22   23 1   
    24   23   24 1   
    25   24   25 1   
    26   25   26 1   
    27   26   27 1   
    28   27   28 1   
    29   28   29 1   
    30   30   31 1   
    31   31   32 1   
    32   32   33 1   
    33   33   34 1   
    34   34   35 1   
    35   35   36 1   
    36   36   37 1   
    37   37   38 1   
    38   38   39 1   
    39    3   40 1   
    40    9   41 1   
    41    9   42 1   
    42   10   43 1   
    43   11   44 1   
    44   11   45 1   
    45   12   46 1   
    46   12   47 1   
    47   13   48 1   
    48   13   49 1   
    49   14   50 1   
    50   14   51 1   
    51   15   52 1   
    52   15   53 1   
    53   16   54 1   
    54   16   55 1   
    55   17   56 1   
    56   17   57 1   
    57   18   58 1   
    58   18   59 1   
    59   19   60 1   
    60   19   61 1   
    61   19   62 1   
    62   21   63 1   
    63   22   64 1   
    64   22   65 1   
    65   23   66 1   
    66   23   67 1   
    67   24   68 1   
    68   24   69 1   
    69   25   70 1   
    70   25   71 1   
    71   26   72 1   
    72   26   73 1   
    73   27   74 1   
    74   27   75 1   
    75   28   76 1   
    76   28   77 1   
    77   29   78 1   
    78   29   79 1   
    79   29   80 1   
    80   31   81 1   
    81   32   82 1   
    82   32   83 1   
    83   33   84 1   
    84   33   85 1   
    85   34   86 1   
    86   34   87 1   
    87   35   88 1   
    88   35   89 1   
    89   36   90 1   
    90   36   91 1   
    91   37   92 1   
    92   37   93 1   
    93   38   94 1   
    94   38   95 1   
    95   39   96 1   
    96   39   97 1   
    97   39   98 1   
@<TRIPOS>SUBSTRUCTURE
     1 LIG         1 TEMP              0 ****  ****    0 ROOT
