@<TRIPOS>MOLECULE
9DG
   17    18     1     0     0
SMALL
bcc


@<TRIPOS>ATOM
      1 C           1.6120   -0.0000   -1.7760 C.c       1 LIG     -0.190000
      2 C1          0.6720   -0.0000   -2.7430 C.d       1 LIG     -0.110300
      3 N          -0.5640    0.0000   -2.1750 N.a       1 LIG     -0.138100
      4 C2         -0.4210    0.0000   -0.8040 C.d       1 LIG     -0.251900
      5 C3         -1.3270    0.0010    0.2730 C.        1 LIG      0.740100
      6 O          -2.5310    0.0010    0.0750 O.3       1 LIG     -0.645500
      7 N1         -0.8330   -0.0040    1.5300 N.        1 LIG     -0.490400
      8 C4          0.5130    0.0000    1.7430 C.d       1 LIG      0.630800
      9 N2          0.9850    0.0010    3.0330 N.h       1 LIG     -0.877800
     10 N3          1.3710    0.0000    0.7510 N.c       1 LIG     -0.628100
     11 C5          0.9500   -0.0000   -0.5290 C.c       1 LIG      0.156400
     12 H           2.6340    0.0000   -1.9220 H         1 LIG      0.169000
     13 H1          0.8610    0.0000   -3.7570 H         1 LIG      0.172000
     14 H2         -1.4190    0.0000   -2.6630 H         1 LIG      0.314700
     15 H3         -1.4500   -0.0110    2.2980 H         1 LIG      0.336500
     16 H4          0.3530    0.0010    3.7880 H         1 LIG      0.405800
     17 H5          1.9550    0.0020    3.2020 H         1 LIG      0.405800
@<TRIPOS>BOND
     1    1    2 ar  
     2    1   11 ar  
     3    2    3 ar  
     4    3    4 ar  
     5    4    5 1   
     6    4   11 ar  
     7    5    6 2   
     8    5    7 1   
     9    7    8 1   
    10    8    9 1   
    11    8   10 2   
    12   10   11 1   
    13    1   12 1   
    14    2   13 1   
    15    3   14 1   
    16    7   15 1   
    17    9   16 1   
    18    9   17 1   
@<TRIPOS>SUBSTRUCTURE
     1 LIG         1 TEMP              0 ****  ****    0 ROOT
