@<TRIPOS>MOLECULE
CAU
   45    47     1     0     0
SMALL
bcc


@<TRIPOS>ATOM
      1 O           2.3430   -0.9770   -1.1490 O.h       1 LIG     -0.636800
      2 C           2.4170   -0.2440    0.0750 C.3       1 LIG      0.085100
      3 C1          3.8080    0.3790    0.2130 C.3       1 LIG      0.102800
      4 N           4.8220   -0.6830    0.2160 N.4       1 LIG     -0.762000
      5 C2          6.1730   -0.1210    0.3480 C.3       1 LIG      0.132500
      6 C3          7.1050   -1.1690    0.9590 C.3       1 LIG     -0.133600
      7 C4          6.6940    0.2820   -1.0330 C.3       1 LIG     -0.133600
      8 C5          1.3600    0.8630    0.0710 C.3       1 LIG      0.096400
      9 O1          0.0570    0.2770    0.0600 O.2       1 LIG     -0.325900
     10 C6         -1.0020    1.1280    0.0550 C.a       1 LIG      0.107100
     11 C7         -0.7940    2.4960    0.0620 C.a       1 LIG     -0.175000
     12 C8         -1.8730    3.3640    0.0570 C.a       1 LIG     -0.085000
     13 C9         -3.1640    2.8800    0.0470 C.a       1 LIG     -0.147000
     14 C10        -3.3960    1.5070    0.0400 C.a       1 LIG      0.001800
     15 C11        -2.3060    0.6260    0.0380 C.p       1 LIG     -0.089000
     16 N1         -4.5610    0.7610    0.0300 N.a       1 LIG     -0.177300
     17 C12        -4.2640   -0.5910    0.0270 C.a       1 LIG     -0.009200
     18 C13        -2.8680   -0.7370    0.0310 C.p       1 LIG     -0.086000
     19 C14        -5.0680   -1.7260    0.0170 C.a       1 LIG     -0.145000
     20 C15        -4.4920   -2.9790    0.0160 C.a       1 LIG     -0.093000
     21 C16        -3.1130   -3.1220    0.0250 C.a       1 LIG     -0.159000
     22 C17        -2.3000   -2.0090    0.0260 C.a       1 LIG     -0.093000
     23 H           3.0130   -1.6790   -1.1470 H         1 LIG      0.461000
     24 H1          2.2390   -0.9040    0.8980 H         1 LIG      0.088700
     25 H2          3.9860    1.0400   -0.6100 H         1 LIG      0.108700
     26 H3          3.8640    0.9280    1.1300 H         1 LIG      0.108700
     27 H4          4.7620   -1.2040   -0.6590 H         1 LIG      0.459300
     28 H5          4.6470   -1.2970    1.0110 H         1 LIG      0.459300
     29 H6          6.1410    0.7400    0.9830 H         1 LIG      0.103700
     30 H7          7.1380   -2.0300    0.3250 H         1 LIG      0.078533
     31 H8          6.7400   -1.4510    1.9250 H         1 LIG      0.078533
     32 H9          8.0890   -0.7590    1.0550 H         1 LIG      0.078533
     33 H10         6.7260   -0.5790   -1.6670 H         1 LIG      0.078533
     34 H11         7.6780    0.6920   -0.9380 H         1 LIG      0.078533
     35 H12         6.0420    1.0150   -1.4600 H         1 LIG      0.078533
     36 H13         1.4850    1.4720   -0.8000 H         1 LIG      0.079200
     37 H14         1.4720    1.4670    0.9470 H         1 LIG      0.079200
     38 H15         0.1680    2.8700    0.0710 H         1 LIG      0.147000
     39 H16        -1.7090    4.3830    0.0610 H         1 LIG      0.149000
     40 H17        -3.9600    3.5370    0.0450 H         1 LIG      0.153000
     41 H18        -5.4710    1.1380    0.0260 H         1 LIG      0.303700
     42 H19        -6.0960   -1.6300    0.0100 H         1 LIG      0.150000
     43 H20        -5.0930   -3.8180    0.0090 H         1 LIG      0.144000
     44 H21        -2.6940   -4.0650    0.0310 H         1 LIG      0.137000
     45 H22        -1.2740   -2.1180    0.0230 H         1 LIG      0.124000
@<TRIPOS>BOND
     1    2    1 1   
     2    3    4 1   
     3    3    2 1   
     4    5    4 1   
     5    5    7 1   
     6    6    5 1   
     7    8    2 1   
     8    9    8 1   
     9   10    9 1   
    10   11   10 ar  
    11   12   11 ar  
    12   13   12 ar  
    13   13   14 ar  
    14   14   16 1   
    15   14   15 ar  
    16   15   10 ar  
    17   15   18 1   
    18   16   17 1   
    19   17   18 ar  
    20   17   19 ar  
    21   18   22 ar  
    22   19   20 ar  
    23   20   21 ar  
    24   22   21 ar  
    25    1   23 1   
    26    2   24 1   
    27    3   25 1   
    28    3   26 1   
    29    4   27 1   
    30    4   28 1   
    31    5   29 1   
    32    6   30 1   
    33    6   31 1   
    34    6   32 1   
    35    7   33 1   
    36    7   34 1   
    37    7   35 1   
    38    8   36 1   
    39    8   37 1   
    40   11   38 1   
    41   12   39 1   
    42   13   40 1   
    43   16   41 1   
    44   19   42 1   
    45   20   43 1   
    46   21   44 1   
    47   22   45 1   
@<TRIPOS>SUBSTRUCTURE
     1 LIG         1 TEMP              0 ****  ****    0 ROOT
