@<TRIPOS>MOLECULE
3HP
   18    18     1     0     0
SMALL
bcc


@<TRIPOS>ATOM
      1 C          -0.1850    0.1360    2.3850 C.        1 LIG      0.918600
      2 O          -0.2040    1.2560    1.9310 O.3       1 LIG     -0.841800
      3 O1         -0.4040   -0.0600    3.6940 O.3       1 LIG     -0.841800
      4 C1          0.0820   -1.0380    1.4800 C.3       1 LIG     -0.177100
      5 C2          0.2920   -0.5490    0.0710 C.a       1 LIG      0.017700
      6 C3         -0.7830   -0.4360   -0.7870 C.a       1 LIG     -0.201000
      7 C4         -0.5890    0.0190   -2.0840 C.a       1 LIG      0.106100
      8 C5          0.6860    0.3490   -2.5170 C.a       1 LIG     -0.193000
      9 C6          1.7600    0.2280   -1.6560 C.a       1 LIG     -0.118000
     10 C7          1.5630   -0.2200   -0.3630 C.a       1 LIG     -0.185000
     11 O2         -1.6460    0.1360   -2.9290 O.h       1 LIG     -0.527100
     12 H          -0.7540   -1.7050    1.5050 H         1 LIG      0.040200
     13 H1          0.9590   -1.5530    1.8130 H         1 LIG      0.040200
     14 H2         -1.7300   -0.6900   -0.4650 H         1 LIG      0.193000
     15 H3          0.8330    0.6850   -3.4820 H         1 LIG      0.124000
     16 H4          2.7090    0.4720   -1.9780 H         1 LIG      0.107000
     17 H5          2.3660   -0.3090    0.2790 H         1 LIG      0.120000
     18 H6         -2.5070   -0.0870   -2.6350 H         1 LIG      0.418000
@<TRIPOS>BOND
     1    1    2 1   
     2    1    3 1   
     3    1    4 1   
     4    4    5 1   
     5    5    6 ar  
     6    5   10 ar  
     7    6    7 ar  
     8    7    8 ar  
     9    7   11 1   
    10    8    9 ar  
    11    9   10 ar  
    12    4   12 1   
    13    4   13 1   
    14    6   14 1   
    15    8   15 1   
    16    9   16 1   
    17   10   17 1   
    18   11   18 1   
@<TRIPOS>SUBSTRUCTURE
     1 LIG         1 TEMP              0 ****  ****    0 ROOT
