@<TRIPOS>MOLECULE
C2N
   13    12     1     0     0
SMALL
bcc


@<TRIPOS>ATOM
      1 Cl         -2.4480    0.2260   -0.0150 C.l       1 LIG     -0.225400
      2 C          -0.7470    0.5610   -0.5100 C.3       1 LIG      0.033000
      3 CA          0.2120   -0.1660    0.4350 C.3       1 LIG     -0.102500
      4 C1          1.6340    0.1140    0.0220 C.        1 LIG      0.944600
      5 O           2.2190    1.2700    0.3720 O.3       1 LIG     -0.743300
      6 OXT         2.2470   -0.7020   -0.6250 O.3       1 LIG     -0.743300
      7 N          -0.0410   -1.6120    0.3720 N.4       1 LIG     -0.829600
      8 H          -0.5630    1.6140   -0.4640 H         1 LIG      0.108700
      9 H4         -0.5920    0.2150   -1.5110 H         1 LIG      0.108700
     10 HA          0.0570    0.1800    1.4360 H         1 LIG      0.103700
     11 H1          0.1070   -1.9420   -0.5820 H         1 LIG      0.448133
     12 H2         -1.0030   -1.8010    0.6520 H         1 LIG      0.448133
     13 H3          0.5980   -2.0970    1.0020 H         1 LIG      0.448133
@<TRIPOS>BOND
     1    1    2 1   
     2    2    3 1   
     3    3    4 1   
     4    3    7 1   
     5    4    5 1   
     6    4    6 1   
     7    2    8 1   
     8    2    9 1   
     9    3   10 1   
    10    7   11 1   
    11    7   12 1   
    12    7   13 1   
@<TRIPOS>SUBSTRUCTURE
     1 LIG         1 TEMP              0 ****  ****    0 ROOT
