@<TRIPOS>MOLECULE
42F
   41    43     1     0     0
SMALL
bcc


@<TRIPOS>ATOM
      1 O           2.7470   -1.8380    0.7120 O.3       1 LIG     -0.582000
      2 C           2.2760   -1.4920   -0.3460 C.        1 LIG      0.636100
      3 O1          1.3820   -2.2750   -0.9700 O.2       1 LIG     -0.394900
      4 C1          1.0270   -3.5220   -0.3160 C.3       1 LIG      0.120700
      5 C2          2.6880   -0.1800   -0.9610 C.3       1 LIG     -0.135700
      6 C3          4.2170   -0.0370   -0.8940 C.3       1 LIG      0.143500
      7 C4          4.5700    1.4290   -1.2330 C.3       1 LIG     -0.100400
      8 C5          4.5280    2.1690    0.1210 C.3       1 LIG     -0.103400
      9 N           4.6120   -0.1880    0.5310 N.4       1 LIG     -0.707400
     10 C6          6.0670   -0.3420    0.6610 C.3       1 LIG      0.090100
     11 C7          2.0480    0.9740   -0.1840 C.3       1 LIG     -0.005400
     12 C8          2.6190    1.0210    1.2360 C.3       1 LIG     -0.107400
     13 C9          4.1530    1.0820    1.1540 C.3       1 LIG      0.138500
     14 C10         0.5570    0.7680   -0.1170 C.a       1 LIG     -0.108300
     15 C11        -0.2830    1.5310   -0.9070 C.a       1 LIG     -0.125000
     16 C12        -1.6500    1.3370   -0.8500 C.a       1 LIG     -0.086000
     17 C13        -2.1780    0.3800   -0.0030 C.a       1 LIG      0.036900
     18 I          -4.2510    0.0870    0.0830 I.        1 LIG     -0.095900
     19 C14        -1.3380   -0.3830    0.7870 C.a       1 LIG     -0.086000
     20 C15         0.0290   -0.1890    0.7300 C.a       1 LIG     -0.125000
     21 H           0.3110   -4.0470   -0.9140 H         1 LIG      0.070367
     22 H1          0.6050   -3.3130    0.6450 H         1 LIG      0.070367
     23 H2          1.9030   -4.1250   -0.1970 H         1 LIG      0.070367
     24 H3          2.3650   -0.1540   -1.9810 H         1 LIG      0.131700
     25 H4          4.6860   -0.7440   -1.5460 H         1 LIG      0.118700
     26 H5          3.8520    1.8420   -1.9110 H         1 LIG      0.091700
     27 H6          5.5240    1.5140   -1.7100 H         1 LIG      0.091700
     28 H7          3.7900    2.9440    0.1040 H         1 LIG      0.091200
     29 H8          5.4600    2.6410    0.3520 H         1 LIG      0.091200
     30 H9          4.2070   -1.0150    0.9700 H         1 LIG      0.487800
     31 H10         6.5560    0.5000    0.2170 H         1 LIG      0.100700
     32 H11         6.3770   -1.2380    0.1640 H         1 LIG      0.100700
     33 H12         6.3280   -0.4010    1.6970 H         1 LIG      0.100700
     34 H13         2.2610    1.8970   -0.6820 H         1 LIG      0.074700
     35 H14         2.3220    0.1430    1.7720 H         1 LIG      0.095200
     36 H15         2.2490    1.8850    1.7470 H         1 LIG      0.095200
     37 H16         4.5710    1.2600    2.1230 H         1 LIG      0.115700
     38 H17         0.1110    2.2450   -1.5390 H         1 LIG      0.139000
     39 H18        -2.2770    1.9060   -1.4400 H         1 LIG      0.159500
     40 H19        -1.7320   -1.0970    1.4190 H         1 LIG      0.159500
     41 H20         0.6560   -0.7580    1.3200 H         1 LIG      0.139000
@<TRIPOS>BOND
     1    1    2 2   
     2    2    5 1   
     3    3    2 1   
     4    3    4 1   
     5    5    6 1   
     6    6    7 1   
     7    8    7 1   
     8    9    6 1   
     9    9   10 1   
    10   11    5 1   
    11   12   11 1   
    12   12   13 1   
    13   13    9 1   
    14   13    8 1   
    15   14   20 ar  
    16   14   11 1   
    17   15   14 ar  
    18   16   17 ar  
    19   16   15 ar  
    20   17   19 ar  
    21   18   17 1   
    22   19   20 ar  
    23    4   21 1   
    24    4   22 1   
    25    4   23 1   
    26    5   24 1   
    27    6   25 1   
    28    7   26 1   
    29    7   27 1   
    30    8   28 1   
    31    8   29 1   
    32    9   30 1   
    33   10   31 1   
    34   10   32 1   
    35   10   33 1   
    36   11   34 1   
    37   12   35 1   
    38   12   36 1   
    39   13   37 1   
    40   15   38 1   
    41   16   39 1   
    42   19   40 1   
    43   20   41 1   
@<TRIPOS>SUBSTRUCTURE
     1 LIG         1 TEMP              0 ****  ****    0 ROOT
