@<TRIPOS>MOLECULE
NPA
   20    20     1     0     0
SMALL
bcc


@<TRIPOS>ATOM
      1 C           0.3930   -0.6210    0.9770 ca        1 LIG     -0.051300
      2 C1         -0.5660   -0.5000    0.0160 ca        1 LIG     -0.075000
      3 C2         -0.2060   -0.1330   -1.2940 ca        1 LIG     -0.272200
      4 C3          1.1530    0.0970   -1.6010 ca        1 LIG      0.184100
      5 C4          2.1090   -0.0380   -0.6050 ca        1 LIG     -0.194000
      6 C5          1.7290   -0.3950    0.6730 ca        1 LIG     -0.039000
      7 C6          0.0020   -1.0100    2.3790 c3        1 LIG     -0.179100
      8 C7         -0.2840    0.2310    3.1830 c         1 LIG      0.918600
      9 N          -1.1440   -0.0070   -2.2420 no        1 LIG      0.324200
     10 O          -0.8260    0.3070   -3.3750 o         1 LIG     -0.248500
     11 O1         -2.3150   -0.2060   -1.9720 o         1 LIG     -0.248500
     12 O2          1.5200    0.4460   -2.8570 oh        1 LIG     -0.513100
     13 O3         -0.1810    1.3200    2.6700 o         1 LIG     -0.833800
     14 O4         -0.6540    0.1270    4.4690 o         1 LIG     -0.833800
     15 H          -1.5560   -0.6770    0.2490 ha        1 LIG      0.161000
     16 H1          3.1050    0.1290   -0.8200 ha        1 LIG      0.148000
     17 H2          2.4450   -0.4950    1.4100 ha        1 LIG      0.212000
     18 H3          0.8030   -1.5540    2.8350 hc        1 LIG      0.045700
     19 H4         -0.8740   -1.6240    2.3480 hc        1 LIG      0.045700
     20 H5          0.8710    0.5360   -3.5270 ho        1 LIG      0.450000
@<TRIPOS>BOND
     1    1    2 ar  
     2    1    6 ar  
     3    1    7 1   
     4    2    3 ar  
     5    3    4 ar  
     6    3    9 1   
     7    4    5 ar  
     8    4   12 1   
     9    5    6 ar  
    10    7    8 1   
    11    8   13 1   
    12    8   14 1   
    13    9   10 1   
    14    9   11 1   
    15    2   15 1   
    16    5   16 1   
    17    6   17 1   
    18    7   18 1   
    19    7   19 1   
    20   12   20 1   
@<TRIPOS>SUBSTRUCTURE
     1 LIG         1 TEMP              0 ****  ****    0 ROOT
