@<TRIPOS>MOLECULE
04X
   35    36     1     0     0
SMALL
bcc


@<TRIPOS>ATOM
      1 C           4.5580   -0.1320    0.8230 C.3       1 LIG      0.098900
      2 C1         -3.9940    0.4660    0.2900 C.        1 LIG      0.956600
      3 N           2.2740   -0.4900    0.0190 N.4       1 LIG     -0.689400
      4 C2          3.6360   -1.0440    0.0090 C.3       1 LIG      0.068300
      5 O           4.5080    1.1920    0.2830 O.2       1 LIG     -0.366600
      6 CA         -2.5100    0.2100    0.2240 C.3       1 LIG     -0.125500
      7 N1         -2.2290   -1.1780    0.6270 N.4       1 LIG     -0.732000
      8 O1         -4.7680   -0.4610    0.2780 O.3       1 LIG     -0.722800
      9 C3          2.2610    0.8690   -0.5410 C.3       1 LIG      0.068300
     10 C4         -2.0180    0.4080   -1.2120 C.3       1 LIG     -0.086200
     11 C5         -0.6120   -0.1090   -1.3410 C.2       1 LIG     -0.016200
     12 C6         -0.0700   -0.9030   -0.4690 C.2       1 LIG     -0.291400
     13 C7         -0.7810   -1.3830    0.7630 C.3       1 LIG      0.163000
     14 C8          1.3440   -1.3670   -0.7050 C.3       1 LIG      0.176000
     15 C9          3.1970    1.7620    0.2780 C.3       1 LIG      0.098900
     16 OXT        -4.4560    1.7240    0.3630 O.3       1 LIG     -0.722800
     17 H           5.5610   -0.5010    0.7730 H         1 LIG      0.100450
     18 H3          4.2370   -0.1160    1.8440 H         1 LIG      0.100450
     19 H4          1.9610   -0.4360    0.9880 H         1 LIG      0.441800
     20 H5          3.6270   -2.0220    0.4420 H         1 LIG      0.112950
     21 H6          3.9910   -1.1060   -0.9990 H         1 LIG      0.112950
     22 HA         -2.0100    0.8910    0.8810 H         1 LIG      0.095700
     23 H1         -2.5950   -1.8150   -0.0810 H         1 LIG      0.473300
     24 H2         -2.6770   -1.3610    1.5250 H         1 LIG      0.473300
     25 H7          1.2670    1.2620   -0.5020 H         1 LIG      0.112950
     26 H8          2.5910    0.8410   -1.5580 H         1 LIG      0.112950
     27 H9         -2.0380    1.4500   -1.4540 H         1 LIG      0.127200
     28 H10        -2.6560   -0.1290   -1.8830 H         1 LIG      0.127200
     29 H11        -0.0530    0.1800   -2.1590 H         1 LIG      0.148000
     30 H12        -0.5830   -2.4250    0.9010 H         1 LIG      0.083200
     31 H13        -0.4280   -0.8280    1.6070 H         1 LIG      0.083200
     32 H14         1.4530   -2.3710   -0.3530 H         1 LIG      0.109200
     33 H15         1.5610   -1.3310   -1.7520 H         1 LIG      0.109200
     34 H16         3.2330    2.7380   -0.1590 H         1 LIG      0.100450
     35 H17         2.8340    1.8370    1.2820 H         1 LIG      0.100450
@<TRIPOS>BOND
     1    1    4 1   
     2    1    5 1   
     3    2    6 1   
     4    2    8 1   
     5    2   16 1   
     6    3    4 1   
     7    3   14 1   
     8    3    9 1   
     9    5   15 1   
    10    6    7 1   
    11    6   10 1   
    12    7   13 1   
    13    9   15 1   
    14   10   11 1   
    15   11   12 2   
    16   12   13 1   
    17   12   14 1   
    18    1   17 1   
    19    1   18 1   
    20    3   19 1   
    21    4   20 1   
    22    4   21 1   
    23    6   22 1   
    24    7   23 1   
    25    7   24 1   
    26    9   25 1   
    27    9   26 1   
    28   10   27 1   
    29   10   28 1   
    30   11   29 1   
    31   13   30 1   
    32   13   31 1   
    33   14   32 1   
    34   14   33 1   
    35   15   34 1   
    36   15   35 1   
@<TRIPOS>SUBSTRUCTURE
     1 LIG         1 TEMP              0 ****  ****    0 ROOT
