@<TRIPOS>MOLECULE
MCT
   17    17     1     0     0
SMALL
bcc


@<TRIPOS>ATOM
      1 C          -0.0440   -0.0010    1.6100 ca        1 LIG     -0.077300
      2 C1         -1.0630    0.0100    0.6760 ca        1 LIG     -0.169000
      3 C2         -0.7620    0.0280   -0.6760 ca        1 LIG      0.041100
      4 O          -1.7630    0.0450   -1.5960 oh        1 LIG     -0.518100
      5 C3          0.5650    0.0240   -1.0900 ca        1 LIG      0.106100
      6 O1          0.8650    0.0360   -2.4170 oh        1 LIG     -0.495100
      7 C4          1.5820    0.0060   -0.1490 ca        1 LIG     -0.129000
      8 C5          1.2750   -0.0060    1.1980 ca        1 LIG     -0.129000
      9 C6         -0.3720   -0.0160    3.0810 c3        1 LIG     -0.050800
     10 H          -2.0470    0.0050    0.9860 ha        1 LIG      0.134000
     11 H1         -2.6570    0.0480   -1.3160 ho        1 LIG      0.428000
     12 H2          0.1770    0.0480   -3.0530 ho        1 LIG      0.436000
     13 H3          2.5680    0.0020   -0.4540 ha        1 LIG      0.153000
     14 H4          2.0330   -0.0190    1.8980 ha        1 LIG      0.136000
     15 H5         -1.4340   -0.0100    3.2100 hc        1 LIG      0.044367
     16 H6          0.0490    0.8490    3.5490 hc        1 LIG      0.044367
     17 H7          0.0360   -0.8980    3.5290 hc        1 LIG      0.044367
@<TRIPOS>BOND
     1    1    2 ar  
     2    1    8 ar  
     3    1    9 1   
     4    2    3 ar  
     5    3    4 1   
     6    3    5 ar  
     7    5    6 1   
     8    5    7 ar  
     9    7    8 ar  
    10    2   10 1   
    11    4   11 1   
    12    6   12 1   
    13    7   13 1   
    14    8   14 1   
    15    9   15 1   
    16    9   16 1   
    17    9   17 1   
@<TRIPOS>SUBSTRUCTURE
     1 LIG         1 TEMP              0 ****  ****    0 ROOT
