@<TRIPOS>MOLECULE
TAK
   56    60     1     0     0
SMALL
bcc


@<TRIPOS>ATOM
      1 C          -8.3000   -0.0110   -0.5120 C.3       1 LIG      0.112800
      2 C1         -8.6970   -1.4100   -0.9880 C.3       1 LIG     -0.106400
      3 C2         -8.5990   -2.3890    0.1850 C.3       1 LIG     -0.098400
      4 C3         -7.1730   -2.3670    0.7410 C.3       1 LIG     -0.106400
      5 C4         -6.8190   -0.9400    1.1670 C.3       1 LIG      0.112800
      6 N          -6.9270   -0.0420    0.0100 N.4       1 LIG     -0.683400
      7 C5         -6.4620    1.3100    0.3480 C.3       1 LIG      0.102800
      8 C6         -4.9620    1.2730    0.6480 C.3       1 LIG      0.108400
      9 O          -4.2480    0.9130   -0.5360 O.2       1 LIG     -0.375900
     10 C7         -2.8950    0.8340   -0.4410 C.a       1 LIG      0.085100
     11 C8         -2.1410    0.4890   -1.5540 C.a       1 LIG     -0.151500
     12 C9         -0.7670    0.4080   -1.4600 C.a       1 LIG     -0.092000
     13 C10        -2.2690    1.1040    0.7680 C.a       1 LIG     -0.151500
     14 C11        -0.8960    1.0260    0.8680 C.a       1 LIG     -0.092000
     15 C12        -0.1360    0.6740   -0.2470 C.a       1 LIG     -0.014000
     16 C13         1.3420    0.5880   -0.1420 C.c       1 LIG     -0.237300
     17 C14         2.0830    1.7060    0.1200 C.d       1 LIG      0.028700
     18 C15         1.9990   -0.6500   -0.3070 C.c       1 LIG      0.440200
     19 N1          3.3060   -0.7180   -0.2130 N.d       1 LIG     -0.615000
     20 C16         4.0360    0.3730    0.0390 C.d       1 LIG      0.366500
     21 N2          3.4400    1.5940    0.2110 N.a       1 LIG      0.033200
     22 N3          4.4460    2.5340    0.4630 N.d       1 LIG     -0.546100
     23 C17         5.6110    1.9340    0.4490 C.c       1 LIG      0.402500
     24 C18         5.4160    0.5730    0.1860 C.c       1 LIG     -0.188800
     25 C19         6.4680   -0.4630    0.0900 C.a       1 LIG      0.022200
     26 C20         7.5920   -0.2720   -0.7230 C.a       1 LIG     -0.234800
     27 C21         8.5490   -1.2630   -0.7830 C.a       1 LIG      0.395200
     28 N4          8.4140   -2.3780   -0.0900 N.b       1 LIG     -0.658000
     29 C22         7.3700   -2.5980    0.6880 C.a       1 LIG      0.395200
     30 C23         6.3700   -1.6580    0.8120 C.a       1 LIG     -0.234800
     31 H          -8.9680    0.3060    0.2610 H         1 LIG      0.099450
     32 H1         -8.3540    0.6730   -1.3330 H         1 LIG      0.099450
     33 H2         -8.0370   -1.7220   -1.7700 H         1 LIG      0.087200
     34 H3         -9.7010   -1.3920   -1.3570 H         1 LIG      0.087200
     35 H4         -8.8360   -3.3760   -0.1520 H         1 LIG      0.079200
     36 H5         -9.2880   -2.1020    0.9520 H         1 LIG      0.079200
     37 H6         -6.4900   -2.6950   -0.0140 H         1 LIG      0.087200
     38 H7         -7.1070   -3.0200    1.5860 H         1 LIG      0.087200
     39 H8         -5.8170   -0.9180    1.5430 H         1 LIG      0.099450
     40 H9         -7.4950   -0.6190    1.9320 H         1 LIG      0.099450
     41 H10        -6.3230   -0.4080   -0.7260 H         1 LIG      0.465800
     42 H11        -6.9890    1.6640    1.2090 H         1 LIG      0.108700
     43 H12        -6.6450    1.9670   -0.4770 H         1 LIG      0.108700
     44 H13        -4.7690    0.5510    1.4140 H         1 LIG      0.079200
     45 H14        -4.6410    2.2390    0.9790 H         1 LIG      0.079200
     46 H15        -2.6090    0.2930   -2.4530 H         1 LIG      0.144500
     47 H16        -0.2070    0.1500   -2.2880 H         1 LIG      0.153000
     48 H17        -2.8320    1.3630    1.5930 H         1 LIG      0.144500
     49 H18        -0.4310    1.2280    1.7670 H         1 LIG      0.153000
     50 H19         1.6230    2.6210    0.2470 H         1 LIG      0.182000
     51 H20         1.4510   -1.5030   -0.5020 H         1 LIG      0.036100
     52 H21         6.5230    2.3900    0.6060 H         1 LIG      0.068800
     53 H22         7.7020    0.5970   -1.2690 H         1 LIG      0.148500
     54 H23         9.3820   -1.1310   -1.3780 H         1 LIG      0.025600
     55 H24         7.3020   -3.4860    1.2100 H         1 LIG      0.025600
     56 H25         5.5610   -1.8330    1.4280 H         1 LIG      0.148500
@<TRIPOS>BOND
     1    1    2 1   
     2    1    6 1   
     3    2    3 1   
     4    3    4 1   
     5    4    5 1   
     6    5    6 1   
     7    6    7 1   
     8    7    8 1   
     9    8    9 1   
    10    9   10 1   
    11   10   11 ar  
    12   10   13 ar  
    13   11   12 ar  
    14   12   15 ar  
    15   13   14 ar  
    16   14   15 ar  
    17   15   16 1   
    18   16   17 ar  
    19   16   18 ar  
    20   17   21 ar  
    21   18   19 ar  
    22   19   20 ar  
    23   20   21 ar  
    24   20   24 2   
    25   21   22 1   
    26   22   23 2   
    27   23   24 1   
    28   24   25 1   
    29   25   26 ar  
    30   25   30 ar  
    31   26   27 ar  
    32   27   28 ar  
    33   28   29 ar  
    34   29   30 ar  
    35    1   31 1   
    36    1   32 1   
    37    2   33 1   
    38    2   34 1   
    39    3   35 1   
    40    3   36 1   
    41    4   37 1   
    42    4   38 1   
    43    5   39 1   
    44    5   40 1   
    45    6   41 1   
    46    7   42 1   
    47    7   43 1   
    48    8   44 1   
    49    8   45 1   
    50   11   46 1   
    51   12   47 1   
    52   13   48 1   
    53   14   49 1   
    54   17   50 1   
    55   18   51 1   
    56   23   52 1   
    57   26   53 1   
    58   27   54 1   
    59   29   55 1   
    60   30   56 1   
@<TRIPOS>SUBSTRUCTURE
     1 LIG         1 TEMP              0 ****  ****    0 ROOT
