@<TRIPOS>MOLECULE
FAS
   84    89     1     0     0
SMALL
bcc


@<TRIPOS>ATOM
      1 P          -1.6820   -0.6100   -3.2290 p5        1 LIG      1.609800
      2 O          -0.7970   -1.7890   -3.3600 o         1 LIG     -0.871500
      3 O1         -3.1950   -1.1000   -2.9790 o         1 LIG     -0.871500
      4 O2         -1.6170    0.2610   -4.5810 os        1 LIG     -0.593200
      5 C          -2.0570   -0.5870   -5.6420 c3        1 LIG      0.189400
      6 C1         -2.0190    0.1840   -6.9620 c3        1 LIG      0.075100
      7 O3         -0.6710    0.5900   -7.2530 os        1 LIG     -0.419600
      8 C2         -2.4850   -0.7250   -8.1150 c3        1 LIG      0.065100
      9 O4         -3.6420   -0.1810   -8.7550 oh        1 LIG     -0.624800
     10 C3         -1.2810   -0.7410   -9.0930 c3        1 LIG      0.122100
     11 O5         -1.7250   -0.6640  -10.4490 oh        1 LIG     -0.596800
     12 C4         -0.5170    0.5450   -8.6880 c3        1 LIG      0.218800
     13 N           0.8970    0.4450   -9.0510 na        1 LIG     -0.280000
     14 C5          1.8840   -0.1270   -8.3040 cc        1 LIG      0.453700
     15 N1          3.0220   -0.0410   -8.9300 nd        1 LIG     -0.575100
     16 C6          2.8390    0.5890  -10.1150 ca        1 LIG     -0.200200
     17 C7          3.6790    0.9550  -11.1800 ca        1 LIG      0.705200
     18 N2          5.0320    0.6670  -11.1450 nh        1 LIG     -0.930500
     19 N3          3.1440    1.5840  -12.2210 nb        1 LIG     -0.800000
     20 C8          1.8540    1.8630  -12.2630 ca        1 LIG      0.648900
     21 N4          1.0290    1.5400  -11.2890 nb        1 LIG     -0.722000
     22 C9          1.4720    0.9040  -10.2090 ca        1 LIG      0.441800
     23 N5         -2.0210    0.3990    8.3170 nc        1 LIG     -0.435400
     24 C10        -2.8910    1.0780    9.0610 c         1 LIG      0.851900
     25 O6         -4.0560    1.0940    8.7060 o         1 LIG     -0.631500
     26 N6         -2.5640    1.7460   10.1770 n         1 LIG     -0.623500
     27 C11        -1.2900    1.7730   10.6320 c         1 LIG      0.615000
     28 O7         -0.9910    2.3790   11.6430 o         1 LIG     -0.623500
     29 C12        -0.2760    1.0350    9.8470 cd        1 LIG      0.261800
     30 N7          0.9830    0.9940   10.1970 nc        1 LIG     -0.521000
     31 C13         1.8750    0.3150    9.4630 ca        1 LIG      0.262600
     32 C14         3.2270    0.2830    9.8570 ca        1 LIG     -0.129300
     33 C15         4.1360   -0.4060    9.1120 ca        1 LIG     -0.119300
     34 C16         5.5800   -0.4360    9.5400 c3        1 LIG     -0.043800
     35 C17         3.7460   -1.0780    7.9590 ca        1 LIG      0.019700
     36 C18         4.7720   -1.8320    7.1520 c3        1 LIG     -0.091800
     37 C19         2.4310   -1.0690    7.5510 ca        1 LIG     -0.174000
     38 C20         1.4800   -0.3730    8.2940 ca        1 LIG      0.014400
     39 N8          0.1630   -0.3560    7.8870 na        1 LIG     -0.056100
     40 C21        -0.7390    0.3340    8.6380 cd        1 LIG      0.090400
     41 C22        -0.2560   -1.0660    6.6760 c3        1 LIG     -0.027700
     42 C23        -0.1470   -0.1290    5.4710 c3        1 LIG      0.121100
     43 O8          1.2060    0.3030    5.3250 oh        1 LIG     -0.626800
     44 C24        -0.5850   -0.8700    4.2070 c3        1 LIG      0.142100
     45 O9          0.2570   -2.0060    4.0050 oh        1 LIG     -0.631800
     46 C25        -0.4760    0.0660    3.0020 c3        1 LIG      0.080100
     47 O10        -1.3190    1.2020    3.2050 oh        1 LIG     -0.624800
     48 C26        -0.9140   -0.6750    1.7380 c3        1 LIG      0.175400
     49 O11        -0.8120    0.2000    0.6130 os        1 LIG     -0.593200
     50 P1         -1.2860   -0.6410   -0.6750 p5        1 LIG      1.622800
     51 O12        -2.6830   -1.0900   -0.4840 o         1 LIG     -0.890500
     52 O13        -0.3300   -1.9230   -0.8600 o         1 LIG     -0.890500
     53 O14        -1.1960    0.2890   -1.9860 os        1 LIG     -0.822800
     54 H          -3.0580   -0.9110   -5.4470 h1        1 LIG      0.045700
     55 H1         -1.4120   -1.4380   -5.7080 h1        1 LIG      0.045700
     56 H2         -2.6600    1.0360   -6.8700 h1        1 LIG      0.058700
     57 H3         -2.7600   -1.7030   -7.7790 h1        1 LIG      0.139700
     58 H4         -3.4430    0.7110   -9.0790 ho        1 LIG      0.433000
     59 H5         -0.6900   -1.6310   -9.0360 h1        1 LIG      0.100700
     60 H6         -2.2710    0.1290  -10.5660 ho        1 LIG      0.417000
     61 H7         -0.8880    1.4210   -9.1780 h2        1 LIG      0.104700
     62 H8          1.7490   -0.5640   -7.3790 h5        1 LIG      0.173800
     63 H9          5.4160    0.2010  -10.3680 hn        1 LIG      0.415800
     64 H10         5.6110    0.9290  -11.8970 hn        1 LIG      0.415800
     65 H11         1.4780    2.3530  -13.0900 h5        1 LIG      0.030100
     66 H12        -3.2650    2.2260   10.6750 hn        1 LIG      0.328500
     67 H13         3.5290    0.7810   10.7090 ha        1 LIG      0.139000
     68 H14         5.6970    0.1300   10.4410 hc        1 LIG      0.039367
     69 H15         6.1890   -0.0100    8.7700 hc        1 LIG      0.039367
     70 H16         5.8800   -1.4480    9.7130 hc        1 LIG      0.039367
     71 H17         5.7330   -1.7310    7.6120 hc        1 LIG      0.077367
     72 H18         4.8080   -1.4330    6.1600 hc        1 LIG      0.077367
     73 H19         4.5030   -2.8670    7.1110 hc        1 LIG      0.077367
     74 H20         2.1510   -1.5760    6.6970 ha        1 LIG      0.239000
     75 H21        -1.2700   -1.3900    6.7850 h1        1 LIG      0.111700
     76 H22         0.3760   -1.9160    6.5250 h1        1 LIG      0.111700
     77 H23        -0.7790    0.7210    5.6220 h1        1 LIG      0.067700
     78 H24         1.7780   -0.4680    5.1880 ho        1 LIG      0.451000
     79 H25        -1.5990   -1.1920    4.3170 h1        1 LIG      0.074700
     80 H26         1.1760   -1.7130    3.9050 ho        1 LIG      0.460000
     81 H27         0.5380    0.3890    2.8920 h1        1 LIG      0.062700
     82 H28        -2.2380    0.9090    3.3050 ho        1 LIG      0.395000
     83 H29        -1.9280   -0.9980    1.8470 h1        1 LIG      0.040700
     84 H30        -0.2830   -1.5260    1.5870 h1        1 LIG      0.040700
@<TRIPOS>BOND
     1    1    2 1   
     2    1    3 1   
     3    1    4 1   
     4    1   53 1   
     5    4    5 1   
     6    5    6 1   
     7    6    7 1   
     8    6    8 1   
     9    7   12 1   
    10    8    9 1   
    11    8   10 1   
    12   10   11 1   
    13   10   12 1   
    14   12   13 1   
    15   13   14 1   
    16   13   22 1   
    17   14   15 2   
    18   15   16 1   
    19   16   17 ar  
    20   16   22 ar  
    21   17   18 1   
    22   17   19 ar  
    23   19   20 ar  
    24   20   21 ar  
    25   21   22 ar  
    26   23   24 1   
    27   23   40 2   
    28   24   25 2   
    29   24   26 1   
    30   26   27 1   
    31   27   28 2   
    32   27   29 1   
    33   29   30 ar  
    34   29   40 ar  
    35   30   31 ar  
    36   31   32 ar  
    37   31   38 ar  
    38   32   33 ar  
    39   33   34 1   
    40   33   35 ar  
    41   35   36 1   
    42   35   37 ar  
    43   37   38 ar  
    44   38   39 ar  
    45   39   40 ar  
    46   39   41 1   
    47   41   42 1   
    48   42   43 1   
    49   42   44 1   
    50   44   45 1   
    51   44   46 1   
    52   46   47 1   
    53   46   48 1   
    54   48   49 1   
    55   49   50 1   
    56   50   51 1   
    57   50   52 1   
    58   50   53 1   
    59    5   54 1   
    60    5   55 1   
    61    6   56 1   
    62    8   57 1   
    63    9   58 1   
    64   10   59 1   
    65   11   60 1   
    66   12   61 1   
    67   14   62 1   
    68   18   63 1   
    69   18   64 1   
    70   20   65 1   
    71   26   66 1   
    72   32   67 1   
    73   34   68 1   
    74   34   69 1   
    75   34   70 1   
    76   36   71 1   
    77   36   72 1   
    78   36   73 1   
    79   37   74 1   
    80   41   75 1   
    81   41   76 1   
    82   42   77 1   
    83   43   78 1   
    84   44   79 1   
    85   45   80 1   
    86   46   81 1   
    87   47   82 1   
    88   48   83 1   
    89   48   84 1   
@<TRIPOS>SUBSTRUCTURE
     1 LIG         1 TEMP              0 ****  ****    0 ROOT
