@<TRIPOS>MOLECULE
8MX
   52    56     1     0     0
SMALL
bcc


@<TRIPOS>ATOM
      1 C           0.3330    2.2410    0.2100 c3        1 LIG     -0.043800
      2 C1          0.0090    0.7760    0.0590 ca        1 LIG     -0.072300
      3 C2         -1.3130    0.3490    0.0780 ca        1 LIG      0.190600
      4 C3         -1.5940   -1.0220   -0.0640 ca        1 LIG     -0.179600
      5 C4         -0.5540   -1.9420   -0.2210 ca        1 LIG     -0.071000
      6 C5          0.7410   -1.5080   -0.2370 ca        1 LIG      0.018900
      7 C6          1.0290   -0.1470   -0.1040 ca        1 LIG      0.035600
      8 N           2.3540    0.2840   -0.1280 nh        1 LIG     -0.610000
      9 C7          3.1310   -0.3300    0.9690 c3        1 LIG      0.146800
     10 C8          4.3060   -1.0660    0.3140 c3        1 LIG     -0.101700
     11 C9          5.5540   -1.0510    1.1670 c3        1 LIG     -0.087400
     12 C10         6.1230    0.3640    1.2860 c3        1 LIG     -0.103400
     13 C11         6.3930    0.8870   -0.1300 c3        1 LIG      0.109800
     14 N1          5.1190    0.9670   -0.8480 n4        1 LIG     -0.758000
     15 C12         4.4870   -0.3440   -1.0360 c3        1 LIG      0.109500
     16 C13         3.0020   -0.0650   -1.4120 c3        1 LIG      0.136800
     17 F           1.7470   -2.3970   -0.3900 f         1 LIG     -0.170900
     18 C14        -2.9990   -1.4600   -0.0420 c         1 LIG      0.595900
     19 O          -3.3000   -2.6360   -0.1610 o         1 LIG     -0.523100
     20 C15        -4.0270   -0.4190    0.1290 cc        1 LIG     -0.249400
     21 C16        -3.6290    0.8960    0.2580 cd        1 LIG      0.040000
     22 N2         -2.3400    1.2570    0.2340 na        1 LIG     -0.501800
     23 C17        -2.0050    2.6760    0.3790 cx        1 LIG      0.145500
     24 C18        -2.0000    3.5330   -0.8880 cx        1 LIG     -0.136400
     25 C19        -3.1230    3.6930    0.1400 cx        1 LIG     -0.136400
     26 C20        -5.4520   -0.7750    0.1600 c         1 LIG      0.934800
     27 O1         -5.8280   -2.0640    0.0320 o         1 LIG     -0.799800
     28 O2         -6.2920    0.0920    0.3020 o         1 LIG     -0.799800
     29 H           1.3930    2.3780    0.1710 hc        1 LIG      0.044033
     30 H1         -0.0380    2.5930    1.1500 hc        1 LIG      0.044033
     31 H2         -0.1270    2.7920   -0.5840 hc        1 LIG      0.044033
     32 H3         -0.7640   -2.9470   -0.3250 ha        1 LIG      0.182000
     33 H4          2.5200   -1.0200    1.5130 h1        1 LIG      0.075700
     34 H5          3.4760    0.4110    1.6590 h1        1 LIG      0.075700
     35 H6          4.1130   -2.1110    0.1880 hc        1 LIG      0.112700
     36 H7          6.2900   -1.6870    0.7210 hc        1 LIG      0.078700
     37 H8          5.3000   -1.3990    2.1470 hc        1 LIG      0.078700
     38 H9          5.4170    0.9990    1.7790 hc        1 LIG      0.084700
     39 H10         7.0280    0.3540    1.8570 hc        1 LIG      0.084700
     40 H11         7.0540    0.2190   -0.6410 hx        1 LIG      0.097700
     41 H12         6.8480    1.8540   -0.0820 hx        1 LIG      0.097700
     42 H13         5.2870    1.3820   -1.7640 hn        1 LIG      0.455300
     43 H14         4.4850    1.5350   -0.2850 hn        1 LIG      0.455300
     44 H15         5.0750   -0.8990   -1.7360 hx        1 LIG      0.109700
     45 H16         2.9330    0.7490   -2.1040 h1        1 LIG      0.085200
     46 H17         2.5380   -0.9040   -1.8870 h1        1 LIG      0.085200
     47 H18        -4.3490    1.6260    0.3770 h4        1 LIG      0.182000
     48 H19        -1.3080    2.4890    1.1690 h1        1 LIG      0.082700
     49 H20        -2.2040    3.0850   -1.8380 hc        1 LIG      0.082200
     50 H21        -1.2980    4.1950   -1.3510 hc        1 LIG      0.082200
     51 H22        -4.1120    3.3570   -0.0910 hc        1 LIG      0.082200
     52 H23        -3.5310    4.5130    0.6930 hc        1 LIG      0.082200
@<TRIPOS>BOND
     1    1    2 1   
     2    2    7 ar  
     3    2    3 ar  
     4    3   22 1   
     5    3    4 ar  
     6    4    5 ar  
     7    4   18 1   
     8    6   17 1   
     9    6    5 ar  
    10    7    6 ar  
    11    8   16 1   
    12    8    7 1   
    13    9    8 1   
    14   10   15 1   
    15   10    9 1   
    16   11   10 1   
    17   12   13 1   
    18   12   11 1   
    19   13   14 1   
    20   14   15 1   
    21   15   16 1   
    22   18   19 2   
    23   20   18 1   
    24   20   26 1   
    25   21   20 2   
    26   22   21 1   
    27   23   22 1   
    28   24   23 1   
    29   25   24 1   
    30   25   23 1   
    31   26   27 1   
    32   28   26 1   
    33    1   29 1   
    34    1   30 1   
    35    1   31 1   
    36    5   32 1   
    37    9   33 1   
    38    9   34 1   
    39   10   35 1   
    40   11   36 1   
    41   11   37 1   
    42   12   38 1   
    43   12   39 1   
    44   13   40 1   
    45   13   41 1   
    46   14   42 1   
    47   14   43 1   
    48   15   44 1   
    49   16   45 1   
    50   16   46 1   
    51   21   47 1   
    52   23   48 1   
    53   24   49 1   
    54   24   50 1   
    55   25   51 1   
    56   25   52 1   
@<TRIPOS>SUBSTRUCTURE
     1 LIG         1 TEMP              0 ****  ****    0 ROOT
