@<TRIPOS>MOLECULE
03M
   42    45     1     0     0
SMALL
bcc


@<TRIPOS>ATOM
      1 C          -3.8100    1.4670    0.8140 C.a       1 LIG     -0.083000
      2 C1         -2.3850   -1.7510   -0.1690 C.c       1 LIG     -0.061100
      3 C2         -2.1570   -0.5590    0.4610 C.d       1 LIG     -0.138200
      4 C3         -3.4140    0.2070    0.3720 C.a       1 LIG     -0.071800
      5 C4         -0.9120   -0.1300    1.0990 C.f       1 LIG     -0.008000
      6 N           0.4620   -1.7520   -0.1690 N.        1 LIG     -0.427100
      7 C5          1.7600   -2.1060   -0.1190 C.        1 LIG      0.787500
      8 C6          1.5140   -0.5760    1.4420 C.        1 LIG      0.713700
      9 C7          5.0990   -0.9430   -0.8850 C.a       1 LIG     -0.102000
     10 C8          5.8250   -0.0520   -1.6530 C.a       1 LIG     -0.148000
     11 C9          6.0660    1.2280   -1.1860 C.a       1 LIG      0.100900
     12 C10         4.8440    0.7240    0.8160 C.a       1 LIG     -0.123000
     13 C11        -5.0930    1.9050    0.5640 C.a       1 LIG     -0.136000
     14 C12        -5.9860    1.0990   -0.1280 C.a       1 LIG      0.027400
     15 C13        -5.6040   -0.1480   -0.5760 C.a       1 LIG     -0.073300
     16 N1         -3.6600   -1.7850   -0.6330 N.a       1 LIG     -0.178400
     17 C14        -4.3170   -0.6120   -0.3240 C.a       1 LIG     -0.046200
     18 C15         0.2550   -0.7690    0.8110 C.c       1 LIG     -0.134600
     19 N2          2.3890   -1.4040    0.8390 N.        1 LIG     -0.514400
     20 O           2.2850   -2.9380   -0.8330 O.3       1 LIG     -0.609500
     21 O1          1.7580    0.1970    2.3510 O.3       1 LIG     -0.574500
     22 C16         3.8090   -1.5250    1.1790 C.3       1 LIG      0.161300
     23 C17         4.6090   -0.5560    0.3480 C.a       1 LIG     -0.114300
     24 C18         5.5790    1.6150    0.0540 C.a       1 LIG      0.086900
     25 F           5.8090    2.8660    0.5100 F.        1 LIG     -0.124900
     26 F1          6.7750    2.0990   -1.9360 F.        1 LIG     -0.124900
     27 C19        -6.5840   -1.0130   -1.3260 C.3       1 LIG     -0.049800
     28 Cl         -7.5980    1.6660   -0.4330 C.l       1 LIG     -0.093400
     29 H          -3.1470    2.0690    1.3260 H         1 LIG      0.145000
     30 H1         -1.6930   -2.5090   -0.2750 H         1 LIG      0.181000
     31 H2         -0.9190    0.6570    1.7670 H         1 LIG      0.164000
     32 H3         -0.2180   -2.1160   -0.7810 H         1 LIG      0.319500
     33 H4          4.9230   -1.8990   -1.2330 H         1 LIG      0.166000
     34 H5          6.1870   -0.3420   -2.5750 H         1 LIG      0.157000
     35 H6          4.4710    1.0150    1.7330 H         1 LIG      0.162000
     36 H7         -5.3910    2.8370    0.8930 H         1 LIG      0.150000
     37 H8         -4.0600   -2.5410   -1.1210 H         1 LIG      0.306700
     38 H9          4.1400   -2.5230    0.9800 H         1 LIG      0.080200
     39 H10         3.9470   -1.3040    2.2170 H         1 LIG      0.080200
     40 H11        -7.5150   -0.4940   -1.4250 H         1 LIG      0.050033
     41 H12        -6.7390   -1.9250   -0.7880 H         1 LIG      0.050033
     42 H13        -6.1940   -1.2340   -2.2980 H         1 LIG      0.050033
@<TRIPOS>BOND
     1    1   13 ar  
     2    2    3 2   
     3    2   16 1   
     4    3    4 1   
     5    4    1 ar  
     6    4   17 ar  
     7    5    3 1   
     8    6   18 1   
     9    7    6 1   
    10    8   21 2   
    11    8   18 1   
    12    9   10 ar  
    13   11   10 ar  
    14   11   26 1   
    15   12   23 ar  
    16   12   24 ar  
    17   13   14 ar  
    18   14   28 1   
    19   15   14 ar  
    20   15   27 1   
    21   16   17 1   
    22   17   15 ar  
    23   18    5 2   
    24   19    7 1   
    25   19    8 1   
    26   20    7 2   
    27   22   19 1   
    28   22   23 1   
    29   23    9 ar  
    30   24   11 ar  
    31   25   24 1   
    32    1   29 1   
    33    2   30 1   
    34    5   31 1   
    35    6   32 1   
    36    9   33 1   
    37   10   34 1   
    38   12   35 1   
    39   13   36 1   
    40   16   37 1   
    41   22   38 1   
    42   22   39 1   
    43   27   40 1   
    44   27   41 1   
    45   27   42 1   
@<TRIPOS>SUBSTRUCTURE
     1 LIG         1 TEMP              0 ****  ****    0 ROOT
