@<TRIPOS>MOLECULE
1W8
   59    63     1     0     0
SMALL
bcc


@<TRIPOS>ATOM
      1 N           5.7700   -1.8980    0.5790 n2        1 LIG     -0.348200
      2 C           9.2070   -0.7540    1.4110 c3        1 LIG     -0.110100
      3 O           6.8930   -1.0600    0.7820 os        1 LIG     -0.175300
      4 C1          8.0620   -1.7530    1.2260 c3        1 LIG      0.147400
      5 N1          2.3990   -1.8030   -0.6740 nc        1 LIG     -0.503100
      6 O1          5.4640    0.8020    0.2040 o         1 LIG     -0.571100
      7 S           1.0460    1.0590   -2.0810 ss        1 LIG     -0.326200
      8 C2          4.6430   -1.3880    0.1750 cf        1 LIG      0.272300
      9 N2          3.5580   -3.5760    0.0830 nd        1 LIG     -0.727000
     10 O2          2.6720    3.1780    1.6510 o         1 LIG     -0.496500
     11 S1         -2.6690    2.8450   -0.6590 ss        1 LIG      0.171100
     12 C3          3.5020   -2.2760   -0.1480 cd        1 LIG      0.581700
     13 N3          2.3180   -5.6440   -0.0920 nh        1 LIG     -0.900500
     14 O3         -1.8080    4.0160    1.1760 o         1 LIG     -0.684300
     15 S2         -2.0820   -0.1940   -0.1940 ss        1 LIG     -0.115300
     16 C4          2.4960   -4.2800   -0.2370 cc        1 LIG      0.645300
     17 N4          3.3020    0.6150   -0.2700 n         1 LIG     -0.531900
     18 OXT         0.2480    4.5440    1.8400 o         1 LIG     -0.684300
     19 C5          4.5000    0.0800    0.0380 c         1 LIG      0.594800
     20 N5          1.2790    2.9050   -0.1860 n         1 LIG     -0.327000
     21 CA          3.1840    2.0550   -0.5140 cy        1 LIG      0.028700
     22 N6         -4.3900    0.7930   -0.1500 nc        1 LIG     -0.677000
     23 C6          2.0130    2.4460   -1.3960 cy        1 LIG      0.115800
     24 N7         -8.4110   -2.1400    0.7200 na        1 LIG     -0.032100
     25 C7          2.3900    2.8010    0.5330 c         1 LIG      0.689500
     26 C20        -0.1070    3.1290   -0.0600 ce        1 LIG     -0.052600
     27 C8         -0.9510    2.5940   -0.9610 c2        1 LIG     -0.186600
     28 C9         -0.6050    1.8120   -2.1850 c3        1 LIG      0.068900
     29 C10        -3.1670    1.1870   -0.3300 cd        1 LIG      0.441700
     30 C11        -4.5770   -0.4980    0.0870 cc        1 LIG      0.302800
     31 C12        -3.4600   -1.2480    0.1130 cd        1 LIG     -0.215400
     32 C13        -5.9240   -1.0750    0.3100 ca        1 LIG      0.067500
     33 C14        -7.0660   -0.2670    0.2770 ca        1 LIG     -0.166000
     34 C15        -8.3000   -0.8450    0.4890 ca        1 LIG     -0.036300
     35 C16        -7.3600   -2.9370    0.7600 ca        1 LIG     -0.036300
     36 C17        -6.0890   -2.4410    0.5590 ca        1 LIG     -0.166000
     37 C18        -9.7420   -2.7090    0.9460 c3        1 LIG     -0.012400
     38 C19        -0.6070    3.9120    1.0080 c         1 LIG      0.902800
     39 S3          1.3730   -3.1420   -0.8780 ss        1 LIG      0.047700
     40 H          10.0820   -1.2720    1.7430 hc        1 LIG      0.056033
     41 H1          8.9280   -0.0220    2.1400 hc        1 LIG      0.056033
     42 H2          9.4120   -0.2690    0.4790 hc        1 LIG      0.056033
     43 H3          7.8570   -2.2380    2.1580 h1        1 LIG      0.051200
     44 H4          8.3410   -2.4850    0.4970 h1        1 LIG      0.051200
     45 H5          3.0380   -6.1960    0.2900 hn        1 LIG      0.419800
     46 H6          1.4720   -6.0620   -0.3710 hn        1 LIG      0.419800
     47 H7          2.5060    0.0380   -0.3310 hn        1 LIG      0.341500
     48 HA          4.2100    2.2500   -0.7480 h1        1 LIG      0.126700
     49 H8          2.2250    3.0450   -2.2570 h2        1 LIG      0.102700
     50 H9         -1.3300    1.0350   -2.3130 h1        1 LIG      0.076700
     51 H10        -0.6040    2.4870   -3.0150 h1        1 LIG      0.076700
     52 H11        -3.4180   -2.2650    0.2830 h4        1 LIG      0.165000
     53 H12        -6.9860    0.7460    0.0970 ha        1 LIG      0.197500
     54 H13        -9.1480   -0.2570    0.4670 h4        1 LIG      0.184500
     55 H14        -7.4910   -3.9440    0.9440 h4        1 LIG      0.184500
     56 H15        -5.2710   -3.0690    0.5920 ha        1 LIG      0.197500
     57 H16       -10.4770   -1.9340    0.8800 h1        1 LIG      0.080033
     58 H17        -9.7790   -3.1540    1.9180 h1        1 LIG      0.080033
     59 H18        -9.9420   -3.4540    0.2050 h1        1 LIG      0.080033
@<TRIPOS>BOND
     1    1    3 1   
     2    1    8 2   
     3    2    4 1   
     4    3    4 1   
     5    5   12 ar  
     6    5   39 ar  
     7    6   19 2   
     8    7   23 1   
     9    7   28 1   
    10    8   12 1   
    11    8   19 1   
    12    9   12 ar  
    13    9   16 ar  
    14   10   25 2   
    15   11   27 1   
    16   11   29 1   
    17   13   16 1   
    18   14   38 1   
    19   15   29 ar  
    20   15   31 ar  
    21   16   39 ar  
    22   17   19 1   
    23   17   21 1   
    24   18   38 1   
    25   20   23 1   
    26   20   25 1   
    27   20   26 1   
    28   21   23 1   
    29   21   25 1   
    30   22   29 ar  
    31   22   30 ar  
    32   24   34 ar  
    33   24   35 ar  
    34   24   37 1   
    35   26   27 2   
    36   26   38 1   
    37   27   28 1   
    38   30   31 ar  
    39   30   32 1   
    40   32   33 ar  
    41   32   36 ar  
    42   33   34 ar  
    43   35   36 ar  
    44    2   40 1   
    45    2   41 1   
    46    2   42 1   
    47    4   43 1   
    48    4   44 1   
    49   13   45 1   
    50   13   46 1   
    51   17   47 1   
    52   21   48 1   
    53   23   49 1   
    54   28   50 1   
    55   28   51 1   
    56   31   52 1   
    57   33   53 1   
    58   34   54 1   
    59   35   55 1   
    60   36   56 1   
    61   37   57 1   
    62   37   58 1   
    63   37   59 1   
@<TRIPOS>SUBSTRUCTURE
     1 LIG         1 TEMP              0 ****  ****    0 ROOT
