@<TRIPOS>MOLECULE
GT5
   82    83     1     0     0
SMALL
bcc


@<TRIPOS>ATOM
      1 C           9.3290    2.2770   -1.5490 c3        1 LIG     -0.144400
      2 C1          6.4900   -0.1100   -0.1740 cc        1 LIG     -0.298000
      3 C2          5.2300   -0.7390    0.2360 c         1 LIG      0.724700
      4 C3          1.6710   -0.1590   -0.3640 c         1 LIG      0.648100
      5 C4         -1.9810   -0.1820   -0.1910 c         1 LIG      0.638100
      6 C5         -4.3900    0.1240    0.0120 c3        1 LIG      0.091700
      7 C6         -4.8570    2.5560   -0.1230 ca        1 LIG     -0.000300
      8 C7         -3.8930    5.0690    0.5090 ca        1 LIG     -0.217300
      9 C8         -3.3680    6.4390    0.8530 c3        1 LIG      0.181100
     10 C9         -5.1830    3.1370    1.0880 ca        1 LIG     -0.123500
     11 C10        -4.0430   -2.3250    0.3670 c3        1 LIG     -0.334600
     12 C11        -3.4930   -5.0450    0.8540 c3        1 LIG     -0.377300
     13 C12         8.3600    1.2680   -0.9900 cd        1 LIG      0.442700
     14 S           6.6640    1.4740   -0.9260 ss        1 LIG     -0.089300
     15 N           8.6940    0.1240   -0.4850 nc        1 LIG     -0.641000
     16 C13         7.7310   -0.6410   -0.0380 cc        1 LIG      0.423200
     17 O           5.2390   -1.8420    0.7480 o         1 LIG     -0.621100
     18 N1          4.0620   -0.0940    0.0460 n         1 LIG     -0.569900
     19 C14         2.8030   -0.7220    0.4560 c3        1 LIG      0.048700
     20 C15         2.5500   -0.4380    1.9380 c3        1 LIG     -0.081400
     21 C16         3.6330   -1.1150    2.7790 c3        1 LIG     -0.069700
     22 C17         3.4530   -0.7290    4.2490 c3        1 LIG     -0.093100
     23 C18         3.5170   -2.6340    2.6330 c3        1 LIG     -0.093100
     24 O1          1.8930    0.6830   -1.2080 o         1 LIG     -0.622100
     25 N2          0.4110   -0.5920   -0.1600 n         1 LIG     -0.541900
     26 C19        -0.6900   -0.0450   -0.9570 c3        1 LIG      0.038700
     27 C20        -0.7960   -0.8140   -2.2760 c3        1 LIG      0.115400
     28 O2         -1.1600   -2.1700   -2.0090 os        1 LIG     -0.451600
     29 C21        -1.2860   -2.9790   -3.1800 c3        1 LIG      0.102700
     30 O3         -1.9810   -0.6860    0.9120 o         1 LIG     -0.619100
     31 N3         -3.1350    0.2570   -0.7320 n         1 LIG     -0.540900
     32 C22        -4.9780   -1.2680   -0.2240 c3        1 LIG     -0.067400
     33 S1         -4.7410   -3.9750    0.0870 s6        1 LIG      1.343000
     34 O4         -5.9500   -4.0870    0.8260 o         1 LIG     -0.655800
     35 O5         -4.7570   -4.2280   -1.3110 o         1 LIG     -0.655800
     36 C23        -5.3820    1.1860   -0.4670 c3        1 LIG     -0.060100
     37 C24        -4.0530    3.2340   -1.0200 ca        1 LIG     -0.123500
     38 C25        -3.5710    4.4900   -0.7050 ca        1 LIG     -0.093000
     39 N4         -4.3200    7.4580    0.3930 n4        1 LIG     -0.846600
     40 C26        -4.7070    4.3960    1.4010 ca        1 LIG     -0.093000
     41 H           8.7900    3.1320   -1.9010 hc        1 LIG      0.069700
     42 H1          9.8710    1.8390   -2.3610 hc        1 LIG      0.069700
     43 H2         10.0130    2.5770   -0.7830 hc        1 LIG      0.069700
     44 H3         -4.2010    0.2580    1.0570 h1        1 LIG      0.088700
     45 H4         -2.4240    6.5900    0.3720 hx        1 LIG      0.110700
     46 H5         -3.2450    6.5180    1.9130 hx        1 LIG      0.110700
     47 H6         -5.7820    2.6310    1.7590 ha        1 LIG      0.172000
     48 H7         -3.0850   -2.2580   -0.1050 h1        1 LIG      0.125200
     49 H8         -3.9350   -2.1580    1.4180 h1        1 LIG      0.125200
     50 H9         -3.4690   -4.8660    1.9090 h1        1 LIG      0.125033
     51 H10        -2.5330   -4.8310    0.4340 h1        1 LIG      0.125033
     52 H11        -3.7410   -6.0700    0.6720 h1        1 LIG      0.125033
     53 H12         7.9010   -1.5680    0.3820 h4        1 LIG      0.067100
     54 H13         4.0550    0.7990   -0.3680 hn        1 LIG      0.320500
     55 H14         2.8650   -1.7790    0.3010 h1        1 LIG      0.098700
     56 H15         2.5750    0.6180    2.1080 hc        1 LIG      0.064700
     57 H16         1.5910   -0.8220    2.2160 hc        1 LIG      0.064700
     58 H17         4.5970   -0.7970    2.4420 hc        1 LIG      0.049700
     59 H18         2.4890   -1.0470    4.5860 hc        1 LIG      0.037533
     60 H19         3.5340    0.3330    4.3510 hc        1 LIG      0.037533
     61 H20         4.2110   -1.2030    4.8380 hc        1 LIG      0.037533
     62 H21         2.5530   -2.9520    2.9700 hc        1 LIG      0.037533
     63 H22         4.2750   -3.1080    3.2210 hc        1 LIG      0.037533
     64 H23         3.6430   -2.9040    1.6050 hc        1 LIG      0.037533
     65 H24         0.2300   -1.2760    0.5250 hn        1 LIG      0.348500
     66 H25        -0.5040    0.9890   -1.1610 h1        1 LIG      0.109700
     67 H26         0.1480   -0.7910   -2.7790 h1        1 LIG      0.048700
     68 H27        -1.5420   -0.3600   -2.8950 h1        1 LIG      0.048700
     69 H28        -1.5590   -3.9740   -2.8980 h1        1 LIG      0.052700
     70 H29        -0.3520   -3.0000   -3.7010 h1        1 LIG      0.052700
     71 H30        -2.0410   -2.5690   -3.8170 h1        1 LIG      0.052700
     72 H31        -3.1340    0.6670   -1.6270 hn        1 LIG      0.311500
     73 H32        -5.0860   -1.4360   -1.2750 hc        1 LIG      0.066700
     74 H33        -5.9350   -1.3350    0.2490 hc        1 LIG      0.066700
     75 H34        -6.3260    1.0350    0.0140 hc        1 LIG      0.071200
     76 H35        -5.5050    1.1070   -1.5270 hc        1 LIG      0.071200
     77 H36        -3.8130    2.8020   -1.9260 ha        1 LIG      0.172000
     78 H37        -2.9710    4.9960   -1.3750 ha        1 LIG      0.137500
     79 H38        -4.4370    7.3830   -0.6180 hn        1 LIG      0.455467
     80 H39        -3.9650    8.3850    0.6260 hn        1 LIG      0.455467
     81 H40        -5.2200    7.3140    0.8510 hn        1 LIG      0.455467
     82 H41        -4.9590    4.8340    2.3010 ha        1 LIG      0.137500
@<TRIPOS>BOND
     1    2    3 1   
     2    2   14 ar  
     3    3   18 1   
     4    4   24 2   
     5    4   25 1   
     6    5   31 1   
     7    6   36 1   
     8    6   32 1   
     9    7   37 ar  
    10    7   36 1   
    11    8   38 ar  
    12    9    8 1   
    13   10    7 ar  
    14   11   33 1   
    15   12   33 1   
    16   13    1 1   
    17   13   14 ar  
    18   15   16 ar  
    19   15   13 ar  
    20   16    2 ar  
    21   17    3 2   
    22   18   19 1   
    23   19    4 1   
    24   20   21 1   
    25   20   19 1   
    26   22   21 1   
    27   23   21 1   
    28   25   26 1   
    29   26   27 1   
    30   26    5 1   
    31   27   28 1   
    32   28   29 1   
    33   30    5 2   
    34   31    6 1   
    35   32   11 1   
    36   33   34 2   
    37   33   35 2   
    38   38   37 ar  
    39   39    9 1   
    40   40   10 ar  
    41   40    8 ar  
    42    1   41 1   
    43    1   42 1   
    44    1   43 1   
    45    6   44 1   
    46    9   45 1   
    47    9   46 1   
    48   10   47 1   
    49   11   48 1   
    50   11   49 1   
    51   12   50 1   
    52   12   51 1   
    53   12   52 1   
    54   16   53 1   
    55   18   54 1   
    56   19   55 1   
    57   20   56 1   
    58   20   57 1   
    59   21   58 1   
    60   22   59 1   
    61   22   60 1   
    62   22   61 1   
    63   23   62 1   
    64   23   63 1   
    65   23   64 1   
    66   25   65 1   
    67   26   66 1   
    68   27   67 1   
    69   27   68 1   
    70   29   69 1   
    71   29   70 1   
    72   29   71 1   
    73   31   72 1   
    74   32   73 1   
    75   32   74 1   
    76   36   75 1   
    77   36   76 1   
    78   37   77 1   
    79   38   78 1   
    80   39   79 1   
    81   39   80 1   
    82   39   81 1   
    83   40   82 1   
@<TRIPOS>SUBSTRUCTURE
     1 LIG         1 TEMP              0 ****  ****    0 ROOT
