@<TRIPOS>MOLECULE
3D1
   31    33     1     0     0
SMALL
bcc


@<TRIPOS>ATOM
      1 O5*         4.5690    1.7720    1.0470 O.h       1 A1      -0.590800
      2 C5*         4.2170    0.9880   -0.0940 C.3       1 A1       0.114400
      3 C4*         3.1840   -0.0670    0.3100 C.3       1 A1       0.050100
      4 O4*         1.9400    0.5600    0.6890 O.2       1 A1      -0.425600
      5 C1*         0.9120   -0.4370    0.5590 C.3       1 A1       0.265800
      6 N9         -0.3390    0.1910    0.1260 N.a       1 A1      -0.295000
      7 C4         -1.6040   -0.3020    0.3190 C.a       1 A1       0.456800
      8 N3         -2.1100   -1.3880    0.8930 N.b       1 A1      -0.745000
      9 C2         -3.4110   -1.5890    0.9200 C.a       1 A1       0.688900
     10 N1         -4.2710   -0.7380    0.3890 N.b       1 A1      -0.796000
     11 C6         -3.8580    0.3760   -0.2060 C.a       1 A1       0.765200
     12 N6         -4.7660    1.2610   -0.7610 N.h       1 A1      -0.959500
     13 C5         -2.4770    0.6340   -0.2610 C.a       1 A1      -0.232200
     14 N7         -1.7140    1.6310   -0.7680 N.c       1 A1      -0.543100
     15 C8         -0.4590    1.3770   -0.5370 C.d       1 A1       0.415700
     16 C2*         1.3860   -1.4470   -0.5030 C.3       1 A1      -0.149400
     17 C3*         2.7930   -0.9430   -0.9070 C.3       1 A1       0.125100
     18 O3*         3.7010   -2.0350   -1.0620 O.h       1 A1      -0.579800
     19 H5*         5.2240    2.4400    0.7910 H         1 A1       0.408000
     20 H5*1        5.0910    0.5030   -0.4770 H         1 A1       0.058700
     21 H5*2        3.8020    1.6230   -0.8480 H         1 A1       0.058700
     22 H4*         3.6270   -0.6300    1.1040 H         1 A1       0.095700
     23 H1*         0.7350   -0.9250    1.4950 H         1 A1       0.099700
     24 H2         -3.7720   -2.4430    1.3730 H         1 A1       0.052100
     25 H61        -5.7310    1.0690   -0.7160 H         1 A1       0.450300
     26 H62        -4.4470    2.0820   -1.2010 H         1 A1       0.450300
     27 H8          0.3290    1.9830   -0.8140 H         1 A1       0.077800
     28 H2*1        0.7270   -1.4480   -1.3460 H         1 A1       0.088700
     29 H2*2        1.4010   -2.4510   -0.1350 H         1 A1       0.088700
     30 H3*         2.8140   -0.4210   -1.8410 H         1 A1       0.099700
     31 H7          3.7280   -2.5520   -0.2420 H         1 A1       0.405000
@<TRIPOS>BOND
     1    1    2 1   
     2    2    3 1   
     3    3    4 1   
     4    3   17 1   
     5    4    5 1   
     6    5    6 1   
     7    5   16 1   
     8    6    7 1   
     9    6   15 1   
    10    7    8 ar  
    11    7   13 ar  
    12    8    9 ar  
    13    9   10 ar  
    14   10   11 ar  
    15   11   12 1   
    16   11   13 ar  
    17   13   14 1   
    18   14   15 2   
    19   16   17 1   
    20   17   18 1   
    21    1   19 1   
    22    2   20 1   
    23    2   21 1   
    24    3   22 1   
    25    5   23 1   
    26    9   24 1   
    27   12   25 1   
    28   12   26 1   
    29   15   27 1   
    30   16   28 1   
    31   16   29 1   
    32   17   30 1   
    33   18   31 1   
@<TRIPOS>SUBSTRUCTURE
     1 A1          1 TEMP              0 ****  ****    0 ROOT
