@<TRIPOS>MOLECULE
RPB
   43    46     1     0     0
SMALL
bcc


@<TRIPOS>ATOM
      1 O          -4.6520    2.0580    0.9130 O.3       1 LIG     -0.627500
      2 C          -3.6260    1.8000    0.3120 C.        1 LIG      0.707100
      3 N          -2.8550    2.8400   -0.0600 N.        1 LIG     -0.569900
      4 C1         -1.6460    2.6750   -0.8280 C.3       1 LIG      0.109000
      5 C2         -0.5390    1.9810   -0.0740 C.3       1 LIG     -0.049200
      6 C3         -0.7440    0.5100    0.0070 C.c       1 LIG     -0.059400
      7 C4         -2.0220   -0.1130    0.0240 C.a       1 LIG     -0.095800
      8 C5         -3.3380    0.3880    0.0630 C.a       1 LIG     -0.053600
      9 C6         -4.3930   -0.5070   -0.1310 C.a       1 LIG     -0.127000
     10 C7         -4.1480   -1.8620   -0.2580 C.a       1 LIG      0.158900
     11 F          -5.1810   -2.7090   -0.4620 F.        1 LIG     -0.122900
     12 C8         -2.8610   -2.3630   -0.1800 C.a       1 LIG     -0.176000
     13 C9         -1.7940   -1.4980   -0.0360 C.a       1 LIG     -0.011200
     14 N1         -0.4330   -1.6940    0.0750 N.a       1 LIG     -0.177400
     15 C10         0.1910   -0.4680    0.0830 C.d       1 LIG     -0.070300
     16 C11         1.6510   -0.2510    0.1610 C.a       1 LIG      0.039200
     17 C12         2.4190   -0.9730    1.0760 C.a       1 LIG     -0.118000
     18 C13         3.7810   -0.7660    1.1440 C.a       1 LIG     -0.093500
     19 C14         2.2690    0.6710   -0.6850 C.a       1 LIG     -0.118000
     20 C15         3.6320    0.8690   -0.6070 C.a       1 LIG     -0.093500
     21 C16         4.3860    0.1540    0.3070 C.a       1 LIG     -0.207300
     22 C17         5.8750    0.3750    0.3870 C.3       1 LIG      0.177100
     23 N2          6.5560   -0.5440   -0.5340 N.4       1 LIG     -0.764000
     24 C18         8.0130   -0.3570   -0.4830 C.3       1 LIG      0.076100
     25 H          -3.1280    3.7490    0.2030 H         1 LIG      0.329500
     26 H1         -1.2980    3.6430   -1.1230 H         1 LIG      0.053700
     27 H2         -1.8900    2.0560   -1.6660 H         1 LIG      0.053700
     28 H3         -0.4980    2.3770    0.9190 H         1 LIG      0.061200
     29 H4          0.3750    2.1550   -0.6030 H         1 LIG      0.061200
     30 H5         -5.3620   -0.1540   -0.1800 H         1 LIG      0.186000
     31 H6         -2.6990   -3.3810   -0.2290 H         1 LIG      0.160000
     32 H7          0.0170   -2.5670    0.1380 H         1 LIG      0.298700
     33 H8          1.9690   -1.6600    1.7000 H         1 LIG      0.166500
     34 H9          4.3500   -1.2990    1.8210 H         1 LIG      0.140000
     35 H10         1.7070    1.2040   -1.3680 H         1 LIG      0.166500
     36 H11         4.0900    1.5510   -1.2310 H         1 LIG      0.140000
     37 H12         6.2100    0.1910    1.3870 H         1 LIG      0.109200
     38 H13         6.1010    1.3850    0.1150 H         1 LIG      0.109200
     39 H14         6.2300   -0.3660   -1.4840 H         1 LIG      0.452800
     40 H15         6.3410   -1.5020   -0.2560 H         1 LIG      0.452800
     41 H16         8.2540    0.6440   -0.7730 H         1 LIG      0.109033
     42 H17         8.4850   -1.0460   -1.1520 H         1 LIG      0.109033
     43 H18         8.3610   -0.5330    0.5130 H         1 LIG      0.109033
@<TRIPOS>BOND
     1    1    2 2   
     2    2    3 1   
     3    2    8 1   
     4    3    4 1   
     5    4    5 1   
     6    5    6 1   
     7    6    7 1   
     8    6   15 2   
     9    7    8 ar  
    10    7   13 ar  
    11    8    9 ar  
    12    9   10 ar  
    13   10   11 1   
    14   10   12 ar  
    15   12   13 ar  
    16   13   14 1   
    17   14   15 1   
    18   15   16 1   
    19   16   17 ar  
    20   16   19 ar  
    21   17   18 ar  
    22   18   21 ar  
    23   19   20 ar  
    24   20   21 ar  
    25   21   22 1   
    26   22   23 1   
    27   23   24 1   
    28    3   25 1   
    29    4   26 1   
    30    4   27 1   
    31    5   28 1   
    32    5   29 1   
    33    9   30 1   
    34   12   31 1   
    35   14   32 1   
    36   17   33 1   
    37   18   34 1   
    38   19   35 1   
    39   20   36 1   
    40   22   37 1   
    41   22   38 1   
    42   23   39 1   
    43   23   40 1   
    44   24   41 1   
    45   24   42 1   
    46   24   43 1   
@<TRIPOS>SUBSTRUCTURE
     1 LIG         1 TEMP              0 ****  ****    0 ROOT
