@<TRIPOS>MOLECULE
MTY
   24    24     1     0     0
SMALL
bcc


@<TRIPOS>ATOM
      1 N           1.2340    1.0870    1.4970 N.4       1 LIG     -0.835600
      2 CA         -0.0650    0.4150    1.6280 C.3       1 LIG     -0.069500
      3 C          -0.0680   -0.8570    0.7790 C.3       1 LIG     -0.053100
      4 C1          0.1690   -0.4990   -0.6640 C.a       1 LIG     -0.070300
      5 C2          1.4590   -0.4490   -1.1600 C.a       1 LIG     -0.198000
      6 C3          1.6800   -0.1210   -2.4850 C.a       1 LIG     -0.091000
      7 C4         -0.9010   -0.2270   -1.4930 C.a       1 LIG     -0.210000
      8 C5         -0.6810    0.1070   -2.8210 C.a       1 LIG      0.135100
      9 C6          0.6130    0.1570   -3.3160 C.a       1 LIG     -0.155000
     10 O          -1.7330    0.3800   -3.6380 O.h       1 LIG     -0.492100
     11 C7         -0.3020    0.0570    3.0720 C.        1 LIG      0.937600
     12 O1          0.6330   -0.1850    3.7960 O.3       1 LIG     -0.755800
     13 OXT        -1.5540    0.0080    3.5540 O.3       1 LIG     -0.755800
     14 H1          1.3940    1.3290    0.5190 H         1 LIG      0.445800
     15 H2          1.9740    0.4630    1.8180 H         1 LIG      0.445800
     16 H3          1.2360    1.9360    2.0620 H         1 LIG      0.445800
     17 HA         -0.8420    1.0700    1.2920 H         1 LIG      0.088700
     18 H          -1.0150   -1.3470    0.8740 H         1 LIG      0.094700
     19 H4          0.7080   -1.5120    1.1160 H         1 LIG      0.094700
     20 H5          2.2580   -0.6570   -0.5400 H         1 LIG      0.131000
     21 H6          2.6430   -0.0840   -2.8530 H         1 LIG      0.139000
     22 H7         -1.8640   -0.2720   -1.1250 H         1 LIG      0.147000
     23 H8          0.7790    0.4020   -4.3050 H         1 LIG      0.157000
     24 H9         -2.6070    0.3460   -3.3030 H         1 LIG      0.426000
@<TRIPOS>BOND
     1    1    2 1   
     2    2    3 1   
     3    2   11 1   
     4    3    4 1   
     5    4    5 ar  
     6    4    7 ar  
     7    5    6 ar  
     8    6    9 ar  
     9    7    8 ar  
    10    8    9 ar  
    11    8   10 1   
    12   11   12 1   
    13   11   13 1   
    14    1   14 1   
    15    1   15 1   
    16    1   16 1   
    17    2   17 1   
    18    3   18 1   
    19    3   19 1   
    20    5   20 1   
    21    6   21 1   
    22    7   22 1   
    23    9   23 1   
    24   10   24 1   
@<TRIPOS>SUBSTRUCTURE
     1 LIG         1 TEMP              0 ****  ****    0 ROOT
