@<TRIPOS>MOLECULE
EMF
   33    34     1     0     0
SMALL
bcc


@<TRIPOS>ATOM
      1 O           2.9610    1.1070    0.9440 O.3       1 LIG     -0.551000
      2 C           2.8940    0.1500    0.2090 C.        1 LIG      0.662100
      3 O1          3.9460   -0.1850   -0.5540 O.2       1 LIG     -0.436900
      4 C1          5.1280    0.6500   -0.4510 C.3       1 LIG      0.138400
      5 C2          6.2140    0.1170   -1.3880 C.3       1 LIG     -0.100100
      6 C3          1.6310   -0.6710    0.1540 C.x       1 LIG     -0.193700
      7 C4          1.2730   -1.4990    1.3900 C.x       1 LIG     -0.094400
      8 C5          0.4700   -0.2410    1.0530 C.x       1 LIG     -0.043400
      9 C6         -0.9280   -0.4300    0.5220 C.a       1 LIG     -0.064300
     10 C7         -1.7590    0.6640    0.3640 C.a       1 LIG     -0.149000
     11 C8         -3.0440    0.4920   -0.1240 C.a       1 LIG      0.044100
     12 O2         -3.8630    1.5670   -0.2800 O.2       1 LIG     -0.348900
     13 C9         -3.3330    2.8440    0.0800 C.3       1 LIG      0.120700
     14 C10        -1.3740   -1.6950    0.1880 C.a       1 LIG     -0.121000
     15 C11        -2.6550   -1.8730   -0.3010 C.a       1 LIG     -0.135000
     16 C12        -3.4950   -0.7820   -0.4560 C.a       1 LIG      0.115100
     17 O3         -4.7550   -0.9560   -0.9360 O.h       1 LIG     -0.494100
     18 H           5.4880    0.6350    0.5560 H         1 LIG      0.051700
     19 H1          4.8800    1.6530   -0.7280 H         1 LIG      0.051700
     20 H2          6.4620   -0.8870   -1.1120 H         1 LIG      0.048033
     21 H3          7.0850    0.7340   -1.3120 H         1 LIG      0.048033
     22 H4          5.8540    0.1310   -2.3960 H         1 LIG      0.048033
     23 H5          1.7440   -0.8780   -0.8900 H         1 LIG      0.116700
     24 H6          1.9270   -1.5060    2.2370 H         1 LIG      0.087700
     25 H7          1.0310   -2.5260    1.5690 H         1 LIG      0.087700
     26 H8          0.2100    0.6550    1.5780 H         1 LIG      0.101700
     27 H9         -1.4220    1.6080    0.6100 H         1 LIG      0.142000
     28 H10        -4.0730    3.5980   -0.0890 H         1 LIG      0.047033
     29 H11        -2.4690    3.0520   -0.5150 H         1 LIG      0.047033
     30 H12        -3.0600    2.8380    1.1150 H         1 LIG      0.047033
     31 H13        -0.7500   -2.5080    0.3040 H         1 LIG      0.135000
     32 H14        -2.9850   -2.8180   -0.5500 H         1 LIG      0.154000
     33 H15        -5.3230   -0.2180   -1.0410 H         1 LIG      0.437000
@<TRIPOS>BOND
     1    2    6 1   
     2    2    1 2   
     3    3    2 1   
     4    4    3 1   
     5    5    4 1   
     6    6    7 1   
     7    8    6 1   
     8    8    7 1   
     9    9    8 1   
    10    9   14 ar  
    11   10    9 ar  
    12   11   10 ar  
    13   11   16 ar  
    14   12   11 1   
    15   13   12 1   
    16   15   14 ar  
    17   16   15 ar  
    18   17   16 1   
    19    4   18 1   
    20    4   19 1   
    21    5   20 1   
    22    5   21 1   
    23    5   22 1   
    24    6   23 1   
    25    7   24 1   
    26    7   25 1   
    27    8   26 1   
    28   10   27 1   
    29   13   28 1   
    30   13   29 1   
    31   13   30 1   
    32   14   31 1   
    33   15   32 1   
    34   17   33 1   
@<TRIPOS>SUBSTRUCTURE
     1 LIG         1 TEMP              0 ****  ****    0 ROOT
