@<TRIPOS>MOLECULE
8N1
   63    65     1     0     0
SMALL
bcc


@<TRIPOS>ATOM
      1 C           5.0980   -0.4540    0.2160 C.a       1 LIG     -0.105300
      2 C6          4.7570   -1.7960    0.2240 C.a       1 LIG     -0.115000
      3 C7          5.7330   -2.7640    0.0680 C.a       1 LIG     -0.135000
      4 C8          7.0530   -2.3980   -0.0950 C.a       1 LIG     -0.113000
      5 C9          7.4030   -1.0470   -0.1040 C.a       1 LIG     -0.055800
      6 C10         6.4140   -0.0750    0.0530 C.a       1 LIG     -0.108000
      7 C11         8.8160   -0.6480   -0.2780 C.e       1 LIG     -0.063400
      8 C12         9.1850    0.0260   -1.3570 C.2       1 LIG     -0.213000
      9 C13         1.6260    0.8040    0.0290 C.        1 LIG      0.763100
     10 C14         4.0280    0.5940    0.3800 C.3       1 LIG      0.172700
     11 C15         3.9400    1.0070    1.8510 C.3       1 LIG     -0.110600
     12 C16         4.3760    1.8160   -0.4720 C.3       1 LIG     -0.110600
     13 C17        -0.6960    1.1200   -0.3870 C.a       1 LIG      0.105600
     14 C18        -0.5740    2.4710   -0.6850 C.a       1 LIG     -0.166000
     15 C19        -1.6940    3.2800   -0.7040 C.a       1 LIG     -0.072000
     16 C20        -2.9390    2.7480   -0.4280 C.a       1 LIG     -0.056600
     17 C21        -3.0670    1.3960   -0.1290 C.a       1 LIG      0.179600
     18 C22        -1.9440    0.5810   -0.1140 C.a       1 LIG     -0.231000
     19 C1*        -4.4600   -0.5670    0.4660 C.3       1 LIG      0.348300
     20 C2*        -5.6240   -0.7940    1.4570 C.3       1 LIG      0.087100
     21 C3*        -6.2590   -2.1230    0.9910 C.3       1 LIG      0.082100
     22 C4*        -5.4040   -2.5420   -0.2260 C.3       1 LIG      0.048100
     23 C5*        -6.2840   -3.1840   -1.3000 C.3       1 LIG      0.121400
     24 C23         9.8350   -1.0070    0.7720 C.3       1 LIG     -0.060900
     25 N          -4.3260    0.8580    0.1520 N.h       1 LIG     -0.741600
     26 N1          2.7390    0.0480   -0.0520 N.        1 LIG     -0.546900
     27 N2          0.4400    0.3020   -0.3680 N.        1 LIG     -0.469100
     28 O           1.6920    1.9390    0.4600 O.3       1 LIG     -0.621100
     29 O4*        -4.8310   -1.3100   -0.7150 O.2       1 LIG     -0.454600
     30 O2*        -5.1280   -0.9160    2.7920 O.h       1 LIG     -0.567800
     31 O3*        -7.6190   -1.9190    0.6010 O.h       1 LIG     -0.569800
     32 O5*        -5.4620   -3.6680   -2.3630 O.h       1 LIG     -0.588800
     33 Cl         -4.3440    3.7680   -0.4530 C.l       1 LIG     -0.101400
     34 H           3.7710   -2.0750    0.3470 H         1 LIG      0.142000
     35 H6          5.4730   -3.7630    0.0740 H         1 LIG      0.134000
     36 H7          7.7800   -3.1210   -0.2100 H         1 LIG      0.136000
     37 H8          6.6670    0.9250    0.0470 H         1 LIG      0.142000
     38 H9          8.4860    0.2720   -2.0760 H         1 LIG      0.116000
     39 H10        10.1710    0.3050   -1.4790 H         1 LIG      0.116000
     40 H11         4.8810    1.4060    2.1660 H         1 LIG      0.052533
     41 H12         3.6970    0.1530    2.4470 H         1 LIG      0.052533
     42 H13         3.1800    1.7510    1.9680 H         1 LIG      0.052533
     43 H14         5.3170    2.2150   -0.1560 H         1 LIG      0.052533
     44 H15         3.6160    2.5600   -0.3550 H         1 LIG      0.052533
     45 H16         4.4380    1.5280   -1.5010 H         1 LIG      0.052533
     46 H17         0.3540    2.8710   -0.8920 H         1 LIG      0.178000
     47 H18        -1.6000    4.2840   -0.9250 H         1 LIG      0.151000
     48 H19        -2.0380   -0.4240    0.1000 H         1 LIG      0.141000
     49 H1*        -3.5200   -0.8850    0.8660 H         1 LIG      0.108700
     50 H2*        -6.3230    0.0160    1.4660 H         1 LIG      0.119700
     51 H3*        -6.2720   -2.8660    1.7610 H         1 LIG      0.107700
     52 H4*        -4.6560   -3.2620    0.0330 H         1 LIG      0.089700
     53 H5*1       -6.9690   -2.4560   -1.6820 H         1 LIG      0.053700
     54 H5*2       -6.8310   -3.9990   -0.8730 H         1 LIG      0.053700
     55 H20        10.7960   -0.6390    0.4770 H         1 LIG      0.045033
     56 H21         9.8780   -2.0710    0.8780 H         1 LIG      0.045033
     57 H22         9.5550   -0.5660    1.7060 H         1 LIG      0.045033
     58 H23        -5.1230    1.4360    0.1390 H         1 LIG      0.403800
     59 H24         2.6860   -0.8710   -0.4010 H         1 LIG      0.298500
     60 H25         0.3720   -0.6400   -0.6450 H         1 LIG      0.308500
     61 H26        -4.4870   -1.6430    2.8330 H         1 LIG      0.406000
     62 H27        -7.6570   -1.2490   -0.1000 H         1 LIG      0.401000
     63 H5*        -4.9660   -2.9300   -2.7500 H         1 LIG      0.412000
@<TRIPOS>BOND
     1    1    2 ar  
     2    2    3 ar  
     3    4    3 ar  
     4    5    4 ar  
     5    6    1 ar  
     6    6    5 ar  
     7    7    8 2   
     8    7    5 1   
     9    9   26 1   
    10   10    1 1   
    11   10   11 1   
    12   12   10 1   
    13   13   27 1   
    14   14   13 ar  
    15   15   14 ar  
    16   16   15 ar  
    17   16   17 ar  
    18   17   18 ar  
    19   18   13 ar  
    20   19   29 1   
    21   20   21 1   
    22   20   30 1   
    23   20   19 1   
    24   21   22 1   
    25   22   29 1   
    26   23   22 1   
    27   24    7 1   
    28   25   19 1   
    29   25   17 1   
    30   26   10 1   
    31   27    9 1   
    32   28    9 2   
    33   31   21 1   
    34   32   23 1   
    35   33   16 1   
    36    2   34 1   
    37    3   35 1   
    38    4   36 1   
    39    6   37 1   
    40    8   38 1   
    41    8   39 1   
    42   11   40 1   
    43   11   41 1   
    44   11   42 1   
    45   12   43 1   
    46   12   44 1   
    47   12   45 1   
    48   14   46 1   
    49   15   47 1   
    50   18   48 1   
    51   19   49 1   
    52   20   50 1   
    53   21   51 1   
    54   22   52 1   
    55   23   53 1   
    56   23   54 1   
    57   24   55 1   
    58   24   56 1   
    59   24   57 1   
    60   25   58 1   
    61   26   59 1   
    62   27   60 1   
    63   30   61 1   
    64   31   62 1   
    65   32   63 1   
@<TRIPOS>SUBSTRUCTURE
     1 LIG         1 TEMP              0 ****  ****    0 ROOT
