@<TRIPOS>MOLECULE
CE9
  102   101     1     0     0
SMALL
bcc


@<TRIPOS>ATOM
      1 C           4.2770   10.8440    1.5190 c3        1 LIG     -0.088100
      2 C1          5.1420    9.7300    2.0910 c3        1 LIG     -0.090400
      3 C2          4.9210    9.5700    3.5950 c3        1 LIG     -0.078400
      4 C3          5.8240    8.5110    4.2370 c3        1 LIG     -0.079400
      5 C4          5.5810    8.3350    5.7380 c3        1 LIG     -0.079400
      6 C5          6.4200    7.2150    6.3640 c3        1 LIG     -0.078400
      7 C6          6.1790    6.9500    7.8540 c3        1 LIG     -0.079400
      8 C7          7.1100    5.8850    8.4380 c3        1 LIG     -0.079400
      9 C8          6.8600    5.6120    9.9250 c3        1 LIG     -0.078400
     10 C9          7.7740    4.5290   10.5040 c3        1 LIG     -0.079400
     11 C10         7.4640    4.2760   11.9830 c3        1 LIG     -0.080400
     12 C11         8.3780    3.2200   12.5920 c3        1 LIG      0.130400
     13 O           8.2110    1.9840   11.9110 os        1 LIG     -0.431600
     14 C12         9.0490    0.9720   12.4520 c3        1 LIG      0.093400
     15 C13         8.8080   -0.3240   11.7020 c3        1 LIG      0.131400
     16 O1          9.0920   -0.1220   10.3230 os        1 LIG     -0.426600
     17 C14         8.8830   -1.3080    9.5690 c3        1 LIG      0.120400
     18 C15         9.1780   -1.0240    8.1090 c3        1 LIG      0.128400
     19 O2          8.2930   -0.0120    7.6440 os        1 LIG     -0.430600
     20 C16         8.5260    0.2950    6.2770 c3        1 LIG      0.128400
     21 C17         7.5400    1.3580    5.8340 c3        1 LIG      0.126400
     22 O3          6.2170    0.8560    5.9810 os        1 LIG     -0.428600
     23 C18         5.2490    1.8140    5.5790 c3        1 LIG      0.127400
     24 C19         3.8650    1.2150    5.7360 c3        1 LIG      0.127400
     25 O4          3.7590    0.0660    4.9040 os        1 LIG     -0.432600
     26 C20         2.4780   -0.5390    5.0110 c3        1 LIG      0.127400
     27 C21         2.4180   -1.7390    4.0860 c3        1 LIG      0.120400
     28 O5          2.6180   -1.3030    2.7460 os        1 LIG     -0.425600
     29 C22         2.5940   -2.3920    1.8350 c3        1 LIG      0.129400
     30 C23         2.8120   -1.8660    0.4290 c3        1 LIG      0.093400
     31 O6          4.0650   -1.1950    0.3740 os        1 LIG     -0.437600
     32 C24         4.3320   -0.6990   -0.9300 c3        1 LIG      0.093400
     33 C25         5.6760    0.0050   -0.9260 c3        1 LIG      0.128400
     34 O7          5.6270    1.0940   -0.0130 os        1 LIG     -0.423600
     35 C26         6.8710    1.7780    0.0480 c3        1 LIG      0.120400
     36 C27         6.7570    2.9250    1.0350 c3        1 LIG      0.129400
     37 O8          5.7500    3.8240    0.5860 os        1 LIG     -0.434600
     38 C28         5.5840    4.9110    1.4870 c3        1 LIG      0.088400
     39 C29         4.5020    5.8320    0.9570 c3        1 LIG      0.130400
     40 O9          3.2900    5.0980    0.8280 oh        1 LIG     -0.602800
     41 H           4.4550   10.9300    0.4670 hc        1 LIG      0.030033
     42 H1          4.5230   11.7680    1.9990 hc        1 LIG      0.030033
     43 H2          3.2450   10.6170    1.6890 hc        1 LIG      0.030033
     44 H3          6.1710    9.9620    1.9130 hc        1 LIG      0.049200
     45 H4          4.8710    8.8130    1.6110 hc        1 LIG      0.049200
     46 H5          3.9010    9.2900    3.7600 hc        1 LIG      0.036700
     47 H6          5.1630   10.5080    4.0500 hc        1 LIG      0.036700
     48 H7          6.8440    8.8000    4.0900 hc        1 LIG      0.037700
     49 H8          5.5980    7.5760    3.7680 hc        1 LIG      0.037700
     50 H9          4.5460    8.1090    5.8900 hc        1 LIG      0.039200
     51 H10         5.8700    9.2490    6.2140 hc        1 LIG      0.039200
     52 H11         7.4520    7.4700    6.2390 hc        1 LIG      0.038700
     53 H12         6.1270    6.3180    5.8600 hc        1 LIG      0.038700
     54 H13         5.1680    6.6240    7.9820 hc        1 LIG      0.039200
     55 H14         6.3770    7.8640    8.3740 hc        1 LIG      0.039200
     56 H15         8.1210    6.2150    8.3180 hc        1 LIG      0.040700
     57 H16         6.9190    4.9730    7.9120 hc        1 LIG      0.040700
     58 H17         5.8440    5.3000   10.0470 hc        1 LIG      0.039200
     59 H18         7.0690    6.5190   10.4530 hc        1 LIG      0.039200
     60 H19         8.7920    4.8440   10.4100 hc        1 LIG      0.045700
     61 H20         7.6090    3.6210    9.9630 hc        1 LIG      0.045700
     62 H21         6.4500    3.9460   12.0710 hc        1 LIG      0.051200
     63 H22         7.6230    5.1920   12.5130 hc        1 LIG      0.051200
     64 H23         8.1320    3.0920   13.6250 h1        1 LIG      0.026700
     65 H24         9.3950    3.5390   12.4990 h1        1 LIG      0.026700
     66 H25         8.8210    0.8340   13.4880 h1        1 LIG      0.037700
     67 H26        10.0740    1.2610   12.3520 h1        1 LIG      0.037700
     68 H27         7.7870   -0.6210   11.8180 h1        1 LIG      0.060700
     69 H28         9.4440   -1.0910   12.0930 h1        1 LIG      0.060700
     70 H29         7.8670   -1.6250    9.6740 h1        1 LIG      0.052200
     71 H30         9.5310   -2.0810    9.9250 h1        1 LIG      0.052200
     72 H31         9.0360   -1.9160    7.5350 h1        1 LIG      0.039200
     73 H32        10.1900   -0.6940    8.0030 h1        1 LIG      0.039200
     74 H33         8.3940   -0.5860    5.6840 h1        1 LIG      0.044700
     75 H34         9.5260    0.6560    6.1530 h1        1 LIG      0.044700
     76 H35         7.7170    1.6060    4.8080 h1        1 LIG      0.044200
     77 H36         7.6620    2.2350    6.4350 h1        1 LIG      0.044200
     78 H37         5.4110    2.0790    4.5550 h1        1 LIG      0.041700
     79 H38         5.3340    2.6900    6.1870 h1        1 LIG      0.041700
     80 H39         3.1280    1.9350    5.4480 h1        1 LIG      0.045200
     81 H40         3.7060    0.9370    6.7570 h1        1 LIG      0.045200
     82 H41         1.7240    0.1670    4.7320 h1        1 LIG      0.040700
     83 H42         2.3100   -0.8530    6.0200 h1        1 LIG      0.040700
     84 H43         1.4610   -2.2100    4.1710 h1        1 LIG      0.050700
     85 H44         3.1800   -2.4410    4.3550 h1        1 LIG      0.050700
     86 H45         1.6460   -2.8850    1.8900 h1        1 LIG      0.061700
     87 H46         3.3680   -3.0880    2.0840 h1        1 LIG      0.061700
     88 H47         2.0280   -1.1830    0.1760 h1        1 LIG      0.040700
     89 H48         2.8070   -2.6800   -0.2660 h1        1 LIG      0.040700
     90 H49         3.5660   -0.0080   -1.2150 h1        1 LIG      0.039700
     91 H50         4.3510   -1.5100   -1.6280 h1        1 LIG      0.039700
     92 H51         5.8920    0.3700   -1.9080 h1        1 LIG      0.061700
     93 H52         6.4420   -0.6810   -0.6290 h1        1 LIG      0.061700
     94 H53         7.1170    2.1610   -0.9200 h1        1 LIG      0.053700
     95 H54         7.6390    1.1040    0.3650 h1        1 LIG      0.053700
     96 H55         7.6940    3.4380    1.0980 h1        1 LIG      0.043700
     97 H56         6.4980    2.5460    2.0020 h1        1 LIG      0.043700
     98 H57         6.5040    5.4500    1.5720 h1        1 LIG      0.037200
     99 H58         5.3030    4.5410    2.4510 h1        1 LIG      0.037200
    100 H59         4.7930    6.2140    0.0010 h1        1 LIG      0.052700
    101 H60         4.3590    6.6490    1.6340 h1        1 LIG      0.052700
    102 H61         3.4230    4.3590    0.2140 ho        1 LIG      0.417000
@<TRIPOS>BOND
     1    1    2 1   
     2    2    3 1   
     3    3    4 1   
     4    4    5 1   
     5    5    6 1   
     6    6    7 1   
     7    7    8 1   
     8    8    9 1   
     9    9   10 1   
    10   10   11 1   
    11   11   12 1   
    12   12   13 1   
    13   13   14 1   
    14   14   15 1   
    15   15   16 1   
    16   16   17 1   
    17   17   18 1   
    18   18   19 1   
    19   19   20 1   
    20   20   21 1   
    21   21   22 1   
    22   22   23 1   
    23   23   24 1   
    24   24   25 1   
    25   25   26 1   
    26   26   27 1   
    27   27   28 1   
    28   28   29 1   
    29   29   30 1   
    30   30   31 1   
    31   31   32 1   
    32   32   33 1   
    33   33   34 1   
    34   34   35 1   
    35   35   36 1   
    36   36   37 1   
    37   37   38 1   
    38   38   39 1   
    39   39   40 1   
    40    1   41 1   
    41    1   42 1   
    42    1   43 1   
    43    2   44 1   
    44    2   45 1   
    45    3   46 1   
    46    3   47 1   
    47    4   48 1   
    48    4   49 1   
    49    5   50 1   
    50    5   51 1   
    51    6   52 1   
    52    6   53 1   
    53    7   54 1   
    54    7   55 1   
    55    8   56 1   
    56    8   57 1   
    57    9   58 1   
    58    9   59 1   
    59   10   60 1   
    60   10   61 1   
    61   11   62 1   
    62   11   63 1   
    63   12   64 1   
    64   12   65 1   
    65   14   66 1   
    66   14   67 1   
    67   15   68 1   
    68   15   69 1   
    69   17   70 1   
    70   17   71 1   
    71   18   72 1   
    72   18   73 1   
    73   20   74 1   
    74   20   75 1   
    75   21   76 1   
    76   21   77 1   
    77   23   78 1   
    78   23   79 1   
    79   24   80 1   
    80   24   81 1   
    81   26   82 1   
    82   26   83 1   
    83   27   84 1   
    84   27   85 1   
    85   29   86 1   
    86   29   87 1   
    87   30   88 1   
    88   30   89 1   
    89   32   90 1   
    90   32   91 1   
    91   33   92 1   
    92   33   93 1   
    93   35   94 1   
    94   35   95 1   
    95   36   96 1   
    96   36   97 1   
    97   38   98 1   
    98   38   99 1   
    99   39  100 1   
   100   39  101 1   
   101   40  102 1   
@<TRIPOS>SUBSTRUCTURE
     1 LIG         1 TEMP              0 ****  ****    0 ROOT
