@<TRIPOS>MOLECULE
SU6
   40    42     1     0     0
SMALL
bcc


@<TRIPOS>ATOM
      1 C           5.7710    0.3110    0.8100 c         1 LIG      0.907600
      2 N           0.3800   -0.9470   -1.0560 na        1 LIG     -0.137100
      3 O           6.4270    0.1130    1.9640 o         1 LIG     -0.848800
      4 C1          4.2900    0.0460    0.7300 c3        1 LIG     -0.197400
      5 N1         -3.3950   -1.6200    0.8120 n         1 LIG     -0.483100
      6 O1          6.3670    0.7060   -0.1640 o         1 LIG     -0.848800
      7 C2          3.7930    0.3480   -0.6850 c3        1 LIG     -0.006100
      8 O2         -1.1430   -1.9050    0.5710 o         1 LIG     -0.661500
      9 C3          2.3110    0.0840   -0.7640 cc        1 LIG     -0.132300
     10 C4          1.7280   -1.0940   -1.0980 cd        1 LIG     -0.017600
     11 C5          2.4590   -2.3630   -1.4560 c3        1 LIG     -0.088800
     12 C6          1.2970    1.0080   -0.5070 cc        1 LIG     -0.070300
     13 C7          1.4800    2.4480   -0.1000 c3        1 LIG     -0.032800
     14 C8          0.0910    0.3520   -0.6950 cd        1 LIG     -0.208100
     15 C9         -1.1960    0.9090   -0.5430 cf        1 LIG      0.099800
     16 C10        -2.2340    0.1300   -0.0690 cc        1 LIG     -0.245400
     17 C11        -2.1550   -1.2360    0.4640 c         1 LIG      0.729700
     18 C12        -3.6660    0.4950    0.0170 ca        1 LIG     -0.063800
     19 C13        -4.3240   -0.6180    0.5590 ca        1 LIG      0.046600
     20 C14        -5.7010   -0.5620    0.7490 ca        1 LIG     -0.172000
     21 C15        -6.4010    0.5770    0.4070 ca        1 LIG     -0.118000
     22 C16        -5.7470    1.6740   -0.1280 ca        1 LIG     -0.161000
     23 C17        -4.3810    1.6370   -0.3240 ca        1 LIG     -0.103000
     24 H          -0.2810   -1.6500   -1.2510 hn        1 LIG      0.325700
     25 H1          3.7770    0.6730    1.4290 hc        1 LIG      0.029200
     26 H2          4.0980   -0.9810    0.9640 hc        1 LIG      0.029200
     27 H3         -3.6170   -2.4990    1.1970 hn        1 LIG      0.331500
     28 H4          4.3050   -0.2800   -1.3840 hc        1 LIG      0.049700
     29 H5          3.9860    1.3740   -0.9190 hc        1 LIG      0.049700
     30 H6          3.5140   -2.1920   -1.4080 hc        1 LIG      0.080700
     31 H7          2.1900   -2.6620   -2.4480 hc        1 LIG      0.080700
     32 H8          2.1910   -3.1360   -0.7660 hc        1 LIG      0.080700
     33 H9          2.5250    2.6700   -0.0350 hc        1 LIG      0.040700
     34 H10         1.0210    2.6110    0.8530 hc        1 LIG      0.040700
     35 H11         1.0250    3.0850   -0.8290 hc        1 LIG      0.040700
     36 H12        -1.3620    1.8980   -0.7860 ha        1 LIG      0.131000
     37 H13        -6.2000   -1.3730    1.1460 ha        1 LIG      0.128000
     38 H14        -7.4220    0.6120    0.5510 ha        1 LIG      0.121000
     39 H15        -6.2810    2.5200   -0.3810 ha        1 LIG      0.123000
     40 H16        -3.8930    2.4540   -0.7220 ha        1 LIG      0.131000
@<TRIPOS>BOND
     1    1    4 1   
     2    3    1 1   
     3    4    7 1   
     4    5   19 1   
     5    6    1 1   
     6    7    9 1   
     7    8   17 2   
     8    9   12 ar  
     9    9   10 ar  
    10   10    2 ar  
    11   11   10 1   
    12   12   14 ar  
    13   13   12 1   
    14   14    2 ar  
    15   14   15 1   
    16   15   16 2   
    17   16   17 1   
    18   16   18 1   
    19   17    5 1   
    20   18   23 ar  
    21   18   19 ar  
    22   19   20 ar  
    23   20   21 ar  
    24   22   21 ar  
    25   23   22 ar  
    26    2   24 1   
    27    4   25 1   
    28    4   26 1   
    29    5   27 1   
    30    7   28 1   
    31    7   29 1   
    32   11   30 1   
    33   11   31 1   
    34   11   32 1   
    35   13   33 1   
    36   13   34 1   
    37   13   35 1   
    38   15   36 1   
    39   20   37 1   
    40   21   38 1   
    41   22   39 1   
    42   23   40 1   
@<TRIPOS>SUBSTRUCTURE
     1 LIG         1 TEMP              0 ****  ****    0 ROOT
