@<TRIPOS>MOLECULE
ALL
   24    24     1     0     0
SMALL
bcc


@<TRIPOS>ATOM
      1 C           0.9810    1.1410   -0.2240 c3        1 LIG      0.307900
      2 C1          1.6500   -0.0220    0.5130 c3        1 LIG      0.060100
      3 C2          0.8920   -1.3160    0.2040 c3        1 LIG      0.065100
      4 C3         -0.5770   -1.1430    0.6040 c3        1 LIG      0.086100
      5 C4         -1.1600    0.0640   -0.1380 c3        1 LIG      0.071100
      6 C5         -2.6090    0.2800    0.3010 c3        1 LIG      0.142400
      7 O           1.6500    2.3610    0.1040 oh        1 LIG     -0.563800
      8 O1          3.0060   -0.1470    0.0780 oh        1 LIG     -0.566800
      9 O2          0.9770   -1.5980   -1.1940 oh        1 LIG     -0.591800
     10 O3         -1.3100   -2.3180    0.2530 oh        1 LIG     -0.578800
     11 O4         -0.3900    1.2270    0.1700 os        1 LIG     -0.455600
     12 O5         -3.1900    1.3320   -0.4740 oh        1 LIG     -0.593800
     13 H           1.0390    0.9760   -1.2800 h2        1 LIG      0.073700
     14 H1          1.6320    0.1620    1.5670 h1        1 LIG      0.096700
     15 H2          1.3230   -2.1270    0.7540 h1        1 LIG      0.111700
     16 H3         -0.6460   -0.9860    1.6600 h1        1 LIG      0.096700
     17 H4         -1.1300   -0.1150   -1.1920 h1        1 LIG      0.049700
     18 H5         -2.6320    0.5460    1.3370 h1        1 LIG      0.065200
     19 H6         -3.1650   -0.6220    0.1520 h1        1 LIG      0.065200
     20 H7          1.5980    2.5110    1.0610 ho        1 LIG      0.420000
     21 H8          3.0250   -0.3140   -0.8770 ho        1 LIG      0.412000
     22 H9          0.5870   -0.8650   -1.6960 ho        1 LIG      0.399000
     23 H10        -1.2490   -2.4630   -0.7040 ho        1 LIG      0.415000
     24 H11        -2.6860    2.1500   -0.3390 ho        1 LIG      0.413000
@<TRIPOS>BOND
     1    1    2 1   
     2    1    7 1   
     3    1   11 1   
     4    2    3 1   
     5    2    8 1   
     6    3    4 1   
     7    3    9 1   
     8    4    5 1   
     9    4   10 1   
    10    5    6 1   
    11    5   11 1   
    12    6   12 1   
    13    1   13 1   
    14    2   14 1   
    15    3   15 1   
    16    4   16 1   
    17    5   17 1   
    18    6   18 1   
    19    6   19 1   
    20    7   20 1   
    21    8   21 1   
    22    9   22 1   
    23   10   23 1   
    24   12   24 1   
@<TRIPOS>SUBSTRUCTURE
     1 LIG         1 TEMP              0 ****  ****    0 ROOT
