@<TRIPOS>MOLECULE
SAZ
   41    41     1     0     0
SMALL
bcc


@<TRIPOS>ATOM
      1 C          -1.4020    0.4760    0.2470 C.3       1 LIG      0.125500
      2 C1         -2.5100    1.2670   -0.4510 C.3       1 LIG     -0.052200
      3 C2         -1.4620   -0.9790   -0.2330 C.3       1 LIG     -0.099400
      4 C3         -3.8160    0.5360   -0.3380 C.2       1 LIG     -0.200200
      5 C4         -2.7570   -1.6070    0.2870 C.3       1 LIG     -0.051200
      6 C5          3.4270   -0.0530    0.6900 C.2       1 LIG     -0.248200
      7 C6          2.3340    0.7860    0.0790 C.3       1 LIG     -0.052200
      8 C7          0.9710    0.2360    0.5040 C.3       1 LIG      0.104800
      9 C8          4.3660   -0.5600   -0.0710 C.2       1 LIG     -0.039400
     10 C9          4.3060   -0.3760   -1.5650 C.3       1 LIG     -0.079400
     11 C10         5.5060   -1.3260    0.5490 C.3       1 LIG     -0.079400
     12 C11        -3.9240   -0.7140   -0.0200 C.2       1 LIG     -0.082400
     13 C12        -5.3060   -1.3100    0.0480 C.3       1 LIG     -0.069900
     14 N          -0.0940    1.0540   -0.0910 N.4       1 LIG     -0.685400
     15 C13        -0.0120    2.4230    0.4360 C.3       1 LIG      0.083100
     16 H          -1.5370    0.5170    1.3080 H         1 LIG      0.107700
     17 H1         -2.2610    1.3880   -1.4840 H         1 LIG      0.066700
     18 H2         -2.6040    2.2250    0.0160 H         1 LIG      0.066700
     19 H3         -0.6200   -1.5200    0.1470 H         1 LIG      0.065700
     20 H4         -1.4400   -1.0140   -1.3020 H         1 LIG      0.065700
     21 H5         -4.6830    1.0630   -0.5260 H         1 LIG      0.157000
     22 H6         -2.6840   -1.7420    1.3460 H         1 LIG      0.078200
     23 H7         -2.9040   -2.5520   -0.1920 H         1 LIG      0.078200
     24 H8          3.4360   -0.2280    1.7070 H         1 LIG      0.134000
     25 H9          2.4140    0.7550   -0.9880 H         1 LIG      0.062200
     26 H10         2.4310    1.7970    0.4140 H         1 LIG      0.062200
     27 H11         0.8910    0.2670    1.5710 H         1 LIG      0.104700
     28 H12         0.8740   -0.7750    0.1680 H         1 LIG      0.104700
     29 H13         3.4340    0.1890   -1.8200 H         1 LIG      0.057200
     30 H14         4.2630   -1.3330   -2.0410 H         1 LIG      0.057200
     31 H15         5.1790    0.1470   -1.8950 H         1 LIG      0.057200
     32 H16         5.3810   -1.3530    1.6110 H         1 LIG      0.057200
     33 H17         6.4310   -0.8440    0.3110 H         1 LIG      0.057200
     34 H18         5.5150   -2.3250    0.1650 H         1 LIG      0.057200
     35 H19        -6.0300   -0.5600   -0.1940 H         1 LIG      0.060700
     36 H20        -5.4880   -1.6760    1.0370 H         1 LIG      0.060700
     37 H21        -5.3810   -2.1170   -0.6510 H         1 LIG      0.060700
     38 H22         0.0170    1.0730   -1.1050 H         1 LIG      0.442800
     39 H23        -0.1290    2.4030    1.4990 H         1 LIG      0.102367
     40 H24        -0.7880    3.0190    0.0030 H         1 LIG      0.102367
     41 H25         0.9410    2.8440    0.1900 H         1 LIG      0.102367
@<TRIPOS>BOND
     1    1    2 1   
     2    1    3 1   
     3    1   14 1   
     4    2    4 1   
     5    3    5 1   
     6    4   12 2   
     7    5   12 1   
     8    6    7 1   
     9    6    9 2   
    10    7    8 1   
    11    8   14 1   
    12    9   10 1   
    13    9   11 1   
    14   12   13 1   
    15   14   15 1   
    16    1   16 1   
    17    2   17 1   
    18    2   18 1   
    19    3   19 1   
    20    3   20 1   
    21    4   21 1   
    22    5   22 1   
    23    5   23 1   
    24    6   24 1   
    25    7   25 1   
    26    7   26 1   
    27    8   27 1   
    28    8   28 1   
    29   10   29 1   
    30   10   30 1   
    31   10   31 1   
    32   11   32 1   
    33   11   33 1   
    34   11   34 1   
    35   13   35 1   
    36   13   36 1   
    37   13   37 1   
    38   14   38 1   
    39   15   39 1   
    40   15   40 1   
    41   15   41 1   
@<TRIPOS>SUBSTRUCTURE
     1 LIG         1 TEMP              0 ****  ****    0 ROOT
