@<TRIPOS>MOLECULE
PZZ
   38    39     1     0     0
SMALL
bcc


@<TRIPOS>ATOM
      1 C           1.1200   -1.2190   -1.3330 C.c       1 LIG     -0.022100
      2 C1          1.8400   -0.2300   -0.7810 C.d       1 LIG     -0.286400
      3 N          -0.2130   -0.9220   -1.2620 N.a       1 LIG     -0.153400
      4 C2          1.0220    2.0170    0.3240 C.a       1 LIG     -0.133000
      5 C3         -0.0930    2.7450    0.6300 C.a       1 LIG     -0.106000
      6 C4         -1.3570    2.2690    0.3090 C.a       1 LIG     -0.105000
      7 C5         -1.5100    1.0550   -0.3240 C.a       1 LIG     -0.051300
      8 C6          0.8900    0.7840   -0.3180 C.a       1 LIG     -0.081800
      9 C7         -0.3890    0.2970   -0.6460 C.a       1 LIG     -0.051200
     10 C8          3.3410   -0.1730   -0.6600 C.3       1 LIG      0.225000
     11 N1          3.7380   -0.5630    0.6990 N.4       1 LIG     -0.691400
     12 C9          3.4210   -1.9750    0.9550 C.3       1 LIG      0.082600
     13 C10         5.1640   -0.2950    0.9280 C.3       1 LIG      0.082600
     14 C11        -2.8880    0.5500   -0.6670 C.3       1 LIG     -0.043100
     15 C12        -3.3810   -0.3810    0.4430 C.3       1 LIG     -0.120400
     16 C13        -4.7800   -0.8930    0.0950 C.3       1 LIG      0.126400
     17 O          -5.2400   -1.7630    1.1310 O.h       1 LIG     -0.582800
     18 H           1.5140   -2.0770   -1.7500 H         1 LIG      0.182000
     19 H1         -0.9390   -1.4940   -1.6010 H         1 LIG      0.322700
     20 H2          1.9580    2.3770    0.5670 H         1 LIG      0.117000
     21 H3          0.0050    3.6560    1.1040 H         1 LIG      0.150000
     22 H4         -2.1900    2.8300    0.5470 H         1 LIG      0.156000
     23 H5          3.6770    0.8230   -0.8580 H         1 LIG      0.099200
     24 H6          3.7810   -0.8450   -1.3670 H         1 LIG      0.099200
     25 H7          3.2020    0.0040    1.3570 H         1 LIG      0.456800
     26 H8          3.9710   -2.5930    0.2770 H         1 LIG      0.101200
     27 H9          2.3730   -2.1360    0.8140 H         1 LIG      0.101200
     28 H10         3.6880   -2.2240    1.9610 H         1 LIG      0.101200
     29 H11         5.7500   -0.8780    0.2490 H         1 LIG      0.101200
     30 H12         5.4190   -0.5560    1.9340 H         1 LIG      0.101200
     31 H13         5.3620    0.7440    0.7680 H         1 LIG      0.101200
     32 H14        -2.8510    0.0140   -1.5920 H         1 LIG      0.061200
     33 H15        -3.5580    1.3790   -0.7610 H         1 LIG      0.061200
     34 H16        -3.4170    0.1550    1.3680 H         1 LIG      0.048700
     35 H17        -2.7110   -1.2100    0.5370 H         1 LIG      0.048700
     36 H18        -4.7440   -1.4290   -0.8310 H         1 LIG      0.051200
     37 H19        -5.4500   -0.0640    0.0020 H         1 LIG      0.051200
     38 H20        -4.6320   -2.5140    1.2160 H         1 LIG      0.396000
@<TRIPOS>BOND
     1    1    3 1   
     2    1    2 2   
     3    2    8 1   
     4    2   10 1   
     5    3    9 1   
     6    4    5 ar  
     7    4    8 ar  
     8    5    6 ar  
     9    6    7 ar  
    10    7   14 1   
    11    7    9 ar  
    12    8    9 ar  
    13   10   11 1   
    14   11   12 1   
    15   11   13 1   
    16   14   15 1   
    17   15   16 1   
    18   16   17 1   
    19    1   18 1   
    20    3   19 1   
    21    4   20 1   
    22    5   21 1   
    23    6   22 1   
    24   10   23 1   
    25   10   24 1   
    26   11   25 1   
    27   12   26 1   
    28   12   27 1   
    29   12   28 1   
    30   13   29 1   
    31   13   30 1   
    32   13   31 1   
    33   14   32 1   
    34   14   33 1   
    35   15   34 1   
    36   15   35 1   
    37   16   36 1   
    38   16   37 1   
    39   17   38 1   
@<TRIPOS>SUBSTRUCTURE
     1 LIG         1 TEMP              0 ****  ****    0 ROOT
