@<TRIPOS>MOLECULE
2HO
   16    16     1     0     0
SMALL
bcc


@<TRIPOS>ATOM
      1 N          -2.9460    1.2830    0.0020 N.        1 LIG     -0.671000
      2 C          -0.9710   -0.1610    0.0010 C.a       1 LIG     -0.131600
      3 C1         -0.4380   -1.4510   -0.0010 C.a       1 LIG     -0.068000
      4 C2          0.9290   -1.6310   -0.0010 C.a       1 LIG     -0.152000
      5 C3          1.7750   -0.5340    0.0010 C.a       1 LIG      0.115900
      6 F           2.0820    1.8180   -0.0010 F.        1 LIG     -0.122900
      7 C4          1.2520    0.7520    0.0020 C.a       1 LIG      0.083900
      8 F1          3.1140   -0.7170    0.0010 F.        1 LIG     -0.119900
      9 C5         -0.1150    0.9430   -0.0030 C.a       1 LIG     -0.120000
     10 C6         -2.4350    0.0370    0.0010 C.        1 LIG      0.670700
     11 O          -3.1780   -0.9250   -0.0010 O.3       1 LIG     -0.602100
     12 H          -2.3440    2.0620    0.0040 H         1 LIG      0.315500
     13 H1         -3.9220    1.4150    0.0010 H         1 LIG      0.315500
     14 H2         -1.0670   -2.2690   -0.0030 H         1 LIG      0.168000
     15 H3          1.3230   -2.5850   -0.0030 H         1 LIG      0.161000
     16 H4         -0.5040    1.8990   -0.0100 H         1 LIG      0.156000
@<TRIPOS>BOND
     1    1   10 1   
     2    2   10 1   
     3    2    3 ar  
     4    4    3 ar  
     5    5    4 ar  
     6    6    7 1   
     7    7    9 ar  
     8    7    5 ar  
     9    8    5 1   
    10    9    2 ar  
    11   10   11 2   
    12    1   12 1   
    13    1   13 1   
    14    3   14 1   
    15    4   15 1   
    16    9   16 1   
@<TRIPOS>SUBSTRUCTURE
     1 LIG         1 TEMP              0 ****  ****    0 ROOT
