@<TRIPOS>MOLECULE
PEA
   21    21     1     0     0
SMALL
bcc


@<TRIPOS>ATOM
      1 C           0.0930   -0.0010    0.3540 C.a       1 LIG     -0.137300
      2 C1          0.7640    1.1970    0.1910 C.a       1 LIG     -0.115000
      3 C2          2.1070    1.1980   -0.1380 C.a       1 LIG     -0.116000
      4 C3          2.7780    0.0010   -0.3040 C.a       1 LIG     -0.095000
      5 C4          2.1070   -1.1970   -0.1410 C.a       1 LIG     -0.116000
      6 C5          0.7660   -1.1970    0.1930 C.a       1 LIG     -0.115000
      7 C6         -1.3700   -0.0010    0.7130 C.3       1 LIG     -0.046100
      8 C7         -2.2090    0.0010   -0.5670 C.3       1 LIG      0.096800
      9 N          -3.6360    0.0000   -0.2170 N.4       1 LIG     -0.839600
     10 H           0.2620    2.0900    0.3150 H         1 LIG      0.132000
     11 H1          2.6080    2.0920   -0.2600 H         1 LIG      0.153000
     12 H2          3.7800    0.0010   -0.5500 H         1 LIG      0.155000
     13 H3          2.6070   -2.0910   -0.2690 H         1 LIG      0.153000
     14 H4          0.2670   -2.0910    0.3220 H         1 LIG      0.132000
     15 H5         -1.5960    0.8720    1.2890 H         1 LIG      0.071700
     16 H6         -1.5970   -0.8750    1.2870 H         1 LIG      0.071700
     17 H7         -1.9820   -0.8720   -1.1430 H         1 LIG      0.116700
     18 H8         -1.9830    0.8760   -1.1400 H         1 LIG      0.116700
     19 H9         -3.8510   -0.8340    0.3300 H         1 LIG      0.460133
     20 H10        -4.1950    0.0010   -1.0700 H         1 LIG      0.460133
     21 H11        -3.8520    0.8320    0.3320 H         1 LIG      0.460133
@<TRIPOS>BOND
     1    1    2 ar  
     2    1    6 ar  
     3    1    7 1   
     4    2    3 ar  
     5    3    4 ar  
     6    4    5 ar  
     7    5    6 ar  
     8    7    8 1   
     9    8    9 1   
    10    2   10 1   
    11    3   11 1   
    12    4   12 1   
    13    5   13 1   
    14    6   14 1   
    15    7   15 1   
    16    7   16 1   
    17    8   17 1   
    18    8   18 1   
    19    9   19 1   
    20    9   20 1   
    21    9   21 1   
@<TRIPOS>SUBSTRUCTURE
     1 LIG         1 TEMP              0 ****  ****    0 ROOT
