@<TRIPOS>MOLECULE
IDY
   28    28     1     0     0
SMALL
bcc


@<TRIPOS>ATOM
      1 S           2.7930    0.4600    0.3320 S.6       1 LIG      1.694300
      2 C          -0.0600   -1.1890    0.5750 C.3       1 LIG      0.276900
      3 O          -0.6420   -2.4170    0.1330 O.2       1 LIG     -0.475600
      4 C1          0.7250   -0.5540   -0.5760 C.3       1 LIG      0.172100
      5 O1          1.3520    0.6470   -0.1200 O.2       1 LIG     -0.596500
      6 C2         -0.2380   -0.2260   -1.7210 C.3       1 LIG      0.096100
      7 O2         -0.8160   -1.4340   -2.2200 O.h       1 LIG     -0.621800
      8 C3         -1.3450    0.6930   -1.1950 C.3       1 LIG      0.115100
      9 O3         -0.7730    1.9270   -0.7560 O.h       1 LIG     -0.599800
     10 C4         -2.0500    0.0090   -0.0200 C.3       1 LIG     -0.015900
     11 O4         -1.0920   -0.2960    0.9960 O.2       1 LIG     -0.399600
     12 C5         -3.1010    0.9320    0.5410 C.        1 LIG      0.935600
     13 C6         -1.3050   -3.1500    1.1660 C.3       1 LIG      0.128700
     14 O5         -2.9900    1.3620    1.6640 O.3       1 LIG     -0.841800
     15 O6         -4.1610    1.2750   -0.2080 O.3       1 LIG     -0.841800
     16 O7          3.1880    1.6870    0.9320 O.3       1 LIG     -0.757200
     17 O8          2.8420   -0.7880    1.0100 O.3       1 LIG     -0.757200
     18 O9          3.6420    0.3010   -0.9210 O.3       1 LIG     -0.757200
     19 H           0.6000   -1.3820    1.3950 H         1 LIG      0.097700
     20 H1          1.4740   -1.2360   -0.9200 H         1 LIG      0.054700
     21 H2          0.2930    0.2630   -2.5110 H         1 LIG      0.079700
     22 H3         -1.2980   -1.8810   -1.5060 H         1 LIG      0.406000
     23 H4         -2.0510    0.8880   -1.9740 H         1 LIG      0.085700
     24 H5         -0.1320    1.7530   -0.0490 H         1 LIG      0.424000
     25 H6         -2.5130   -0.8950   -0.3570 H         1 LIG      0.023700
     26 H7         -1.7120   -4.0520    0.7580 H         1 LIG      0.024033
     27 H8         -2.0950   -2.5550    1.5750 H         1 LIG      0.024033
     28 H9         -0.6040   -3.3920    1.9380 H         1 LIG      0.024033
@<TRIPOS>BOND
     1    1    5 1   
     2    1   16 1   
     3    1   17 1   
     4    1   18 1   
     5    2    3 1   
     6    2    4 1   
     7    2   11 1   
     8    3   13 1   
     9    4    5 1   
    10    4    6 1   
    11    6    7 1   
    12    6    8 1   
    13    8    9 1   
    14    8   10 1   
    15   10   11 1   
    16   10   12 1   
    17   12   14 1   
    18   12   15 1   
    19    2   19 1   
    20    4   20 1   
    21    6   21 1   
    22    7   22 1   
    23    8   23 1   
    24    9   24 1   
    25   10   25 1   
    26   13   26 1   
    27   13   27 1   
    28   13   28 1   
@<TRIPOS>SUBSTRUCTURE
     1 LIG         1 TEMP              0 ****  ****    0 ROOT
