@<TRIPOS>MOLECULE
4AP
   14    14     1     0     0
SMALL
bcc


@<TRIPOS>ATOM
      1 N          -1.7680    0.0000    0.0010 na        1 LIG     -0.160100
      2 C          -1.1270   -1.1540    0.0020 ca        1 LIG      0.025700
      3 C1          0.2520   -1.1970   -0.0040 ca        1 LIG     -0.245000
      4 C2          0.9670    0.0000    0.0010 ca        1 LIG      0.309600
      5 C3          0.2520    1.1970   -0.0010 ca        1 LIG     -0.245000
      6 C4         -1.1270    1.1540   -0.0010 ca        1 LIG      0.025700
      7 N1          2.3590    0.0000    0.0010 nh        1 LIG     -0.789200
      8 H          -2.7520    0.0000    0.0020 hn        1 LIG      0.340700
      9 H1         -1.6640   -2.0350    0.0070 h4        1 LIG      0.206000
     10 H2          0.7470   -2.1020   -0.0120 ha        1 LIG      0.192000
     11 H3          0.7470    2.1020   -0.0030 ha        1 LIG      0.192000
     12 H4         -1.6640    2.0350   -0.0030 h4        1 LIG      0.206000
     13 H5          2.8510   -0.8530    0.0020 hn        1 LIG      0.470800
     14 H6          2.8510    0.8530   -0.0000 hn        1 LIG      0.470800
@<TRIPOS>BOND
     1    1    2 ar  
     2    1    6 ar  
     3    2    3 ar  
     4    3    4 ar  
     5    4    5 ar  
     6    4    7 1   
     7    5    6 ar  
     8    1    8 1   
     9    2    9 1   
    10    3   10 1   
    11    5   11 1   
    12    6   12 1   
    13    7   13 1   
    14    7   14 1   
@<TRIPOS>SUBSTRUCTURE
     1 LIG         1 TEMP              0 ****  ****    0 ROOT
