@<TRIPOS>MOLECULE
SR1
   23    23     1     0     0
SMALL
bcc


@<TRIPOS>ATOM
      1 C           4.2180    0.0200   -0.4750 c3        1 LIG     -0.055000
      2 S           2.7470    0.3710    0.5280 ss        1 LIG     -0.274200
      3 C1          1.4900   -0.5120   -0.4370 c3        1 LIG     -0.028300
      4 C2          0.1250   -0.3530    0.2360 c3        1 LIG      0.108100
      5 O          -0.2920    1.0160    0.1710 os        1 LIG     -0.450600
      6 C3         -1.5050    1.1230   -0.5900 c3        1 LIG      0.302900
      7 O1         -2.3540    2.1270   -0.0300 oh        1 LIG     -0.636800
      8 C4         -2.1740   -0.2700   -0.4840 c3        1 LIG      0.092100
      9 O2         -2.8910   -0.4050    0.7450 oh        1 LIG     -0.584800
     10 C5         -0.9280   -1.2000   -0.5100 c3        1 LIG      0.088100
     11 O3         -1.1910   -2.4220    0.1820 oh        1 LIG     -0.581800
     12 H           5.0730    0.4840   -0.0290 h1        1 LIG      0.071367
     13 H1          4.0770    0.4070   -1.4630 h1        1 LIG      0.071367
     14 H2          4.3720   -1.0380   -0.5250 h1        1 LIG      0.071367
     15 H3          1.7440   -1.5500   -0.4880 h1        1 LIG      0.085700
     16 H4          1.4490   -0.1060   -1.4260 h1        1 LIG      0.085700
     17 H5          0.2100   -0.6710    1.2540 h1        1 LIG      0.080700
     18 H6         -1.3190    1.4010   -1.6060 h2        1 LIG      0.084700
     19 H7         -2.5460    1.9090    0.8950 ho        1 LIG      0.441000
     20 H8         -2.8950   -0.4740   -1.2480 h1        1 LIG      0.093700
     21 H9         -2.2930   -0.2320    1.4890 ho        1 LIG      0.430000
     22 H10        -0.6250   -1.4910   -1.4940 h1        1 LIG      0.086700
     23 H11        -1.4730   -2.2260    1.0890 ho        1 LIG      0.419000
@<TRIPOS>BOND
     1    1    2 1   
     2    2    3 1   
     3    3    4 1   
     4    4    5 1   
     5    4   10 1   
     6    5    6 1   
     7    6    7 1   
     8    6    8 1   
     9    8    9 1   
    10    8   10 1   
    11   10   11 1   
    12    1   12 1   
    13    1   13 1   
    14    1   14 1   
    15    3   15 1   
    16    3   16 1   
    17    4   17 1   
    18    6   18 1   
    19    7   19 1   
    20    8   20 1   
    21    9   21 1   
    22   10   22 1   
    23   11   23 1   
@<TRIPOS>SUBSTRUCTURE
     1 LIG         1 TEMP              0 ****  ****    0 ROOT
