@<TRIPOS>MOLECULE
2BG
   20    21     1     0     0
SMALL
bcc


@<TRIPOS>ATOM
      1 N           0.6140   -1.0930    0.2670 N.c       1 LIG     -0.536100
      2 C          -0.6750   -0.7360    0.1110 C.a       1 LIG      0.077400
      3 C1         -1.8300   -1.5410    0.0430 C.a       1 LIG     -0.063000
      4 C2         -3.0570   -0.9740   -0.1190 C.a       1 LIG     -0.111000
      5 C3         -3.1950    0.4040   -0.2220 C.a       1 LIG     -0.081000
      6 C4         -2.0840    1.2150   -0.1610 C.a       1 LIG     -0.091000
      7 C5         -0.8210    0.6520    0.0070 C.a       1 LIG     -0.090100
      8 S           0.7790    1.3780    0.1250 S.3       1 LIG      0.123900
      9 C6          1.4920   -0.1630    0.2980 C.d       1 LIG      0.194200
     10 C7          2.9710   -0.3990    0.4660 C.3       1 LIG      0.119500
     11 N1          3.5940   -0.5640   -0.8550 N.4       1 LIG     -0.830600
     12 H          -1.7450   -2.5670    0.1170 H         1 LIG      0.161000
     13 H1         -3.8940   -1.5750   -0.1660 H         1 LIG      0.160000
     14 H2         -4.1310    0.8210   -0.3440 H         1 LIG      0.161000
     15 H3         -2.1870    2.2390   -0.2400 H         1 LIG      0.159000
     16 H4          3.1270   -1.2840    1.0470 H         1 LIG      0.119700
     17 H5          3.4110    0.4380    0.9660 H         1 LIG      0.119700
     18 H6          3.1740   -1.3620   -1.3310 H         1 LIG      0.468800
     19 H7          4.5950   -0.7240   -0.7410 H         1 LIG      0.468800
     20 H8          3.4450    0.2790   -1.4090 H         1 LIG      0.468800
@<TRIPOS>BOND
     1    2    3 ar  
     2    2    1 1   
     3    4    3 ar  
     4    5    4 ar  
     5    6    5 ar  
     6    6    7 ar  
     7    7    2 ar  
     8    8    7 1   
     9    8    9 1   
    10    9    1 2   
    11    9   10 1   
    12   10   11 1   
    13    3   12 1   
    14    4   13 1   
    15    5   14 1   
    16    6   15 1   
    17   10   16 1   
    18   10   17 1   
    19   11   18 1   
    20   11   19 1   
    21   11   20 1   
@<TRIPOS>SUBSTRUCTURE
     1 LIG         1 TEMP              0 ****  ****    0 ROOT
