@<TRIPOS>MOLECULE
D3Y
   55    58     1     0     0
SMALL
bcc


@<TRIPOS>ATOM
      1 C          -5.1050    1.9110    0.3020 C.a       1 LIG     -0.088000
      2 C1         -6.2840    2.5010    0.7150 C.a       1 LIG     -0.179500
      3 C2         -7.5010    1.9830    0.2960 C.a       1 LIG      0.168100
      4 O          -8.6620    2.5620    0.7010 O.h       1 LIG     -0.471100
      5 C3         -7.5310    0.8740   -0.5360 C.a       1 LIG     -0.179500
      6 C4         -6.3490    0.2880   -0.9470 C.a       1 LIG     -0.088000
      7 C5         -5.1370    0.8050   -0.5280 C.a       1 LIG     -0.216300
      8 C6         -3.8500    0.1680   -0.9830 C.3       1 LIG     -0.043100
      9 C7         -3.4360   -0.9140    0.0170 C.3       1 LIG      0.033500
     10 N          -4.4300   -1.9950    0.0080 N.4       1 LIG     -0.835600
     11 C8         -2.0880   -1.4660   -0.3700 C.        1 LIG      0.645100
     12 O1         -2.0130   -2.5190   -0.9670 O.3       1 LIG     -0.599100
     13 N1         -0.9660   -0.7910   -0.0520 N.        1 LIG     -0.486900
     14 C9          0.3440   -1.3280   -0.4290 C.3       1 LIG      0.060700
     15 C10         1.3930   -0.1960   -0.5020 C.3       1 LIG      0.100100
     16 O2          0.7940    1.0630   -0.1860 O.h       1 LIG     -0.620800
     17 C11         0.8790   -2.2690    0.6730 C.3       1 LIG      0.081100
     18 C12         0.6040   -3.7290    0.3060 C.3       1 LIG      0.111400
     19 O3          1.0020   -4.5750    1.3880 O.h       1 LIG     -0.575800
     20 O4          2.3010   -2.0180    0.7140 O.2       1 LIG     -0.410600
     21 C13         2.4400   -0.5840    0.5650 C.3       1 LIG      0.229800
     22 N2          3.7890   -0.2470    0.1060 N.a       1 LIG     -0.310000
     23 C14         4.6370   -1.0670   -0.5770 C.c       1 LIG      0.418700
     24 N3          5.7530   -0.4450   -0.8260 N.d       1 LIG     -0.522100
     25 C15         5.6910    0.8110   -0.3210 C.a       1 LIG     -0.231200
     26 C16         4.4290    0.9550    0.2780 C.a       1 LIG      0.456800
     27 N4          4.1130    2.1130    0.8490 N.b       1 LIG     -0.793000
     28 C17         4.9670    3.1140    0.8530 C.a       1 LIG      0.704900
     29 N5          6.1640    3.0270    0.3010 N.b       1 LIG     -0.786000
     30 C18         6.5710    1.9060   -0.2870 C.a       1 LIG      0.777200
     31 N6          7.8260    1.8260   -0.8650 N.h       1 LIG     -0.943500
     32 H          -4.1990    2.2960    0.6130 H         1 LIG      0.140000
     33 H1         -6.2600    3.3260    1.3340 H         1 LIG      0.166500
     34 H2         -9.4840    2.2120    0.4180 H         1 LIG      0.439000
     35 H3         -8.4350    0.4870   -0.8480 H         1 LIG      0.166500
     36 H4         -6.3710   -0.5360   -1.5670 H         1 LIG      0.140000
     37 H5         -3.0840    0.9130   -1.0400 H         1 LIG      0.099200
     38 H6         -3.9910   -0.2730   -1.9480 H         1 LIG      0.099200
     39 H7         -3.3790   -0.4910    0.9980 H         1 LIG      0.122700
     40 H8         -4.4850   -2.3990   -0.9270 H         1 LIG      0.471133
     41 H9         -5.3420   -1.6210    0.2700 H         1 LIG      0.471133
     42 H10        -4.1540   -2.7160    0.6740 H         1 LIG      0.471133
     43 H11        -1.0260    0.0630    0.4340 H         1 LIG      0.331500
     44 H12         0.2110   -1.8260   -1.3670 H         1 LIG      0.116700
     45 H13         1.8200   -0.0910   -1.4770 H         1 LIG      0.097700
     46 H14         0.3910    1.0170    0.6950 H         1 LIG      0.458000
     47 H15         0.4100   -2.0940    1.6190 H         1 LIG      0.107700
     48 H16         1.1590   -3.9870   -0.5720 H         1 LIG      0.064700
     49 H17        -0.4410   -3.8590    0.1170 H         1 LIG      0.064700
     50 H18         1.9500   -4.4570    1.5590 H         1 LIG      0.411000
     51 H19         2.2890   -0.0630    1.4880 H         1 LIG      0.102700
     52 H20         4.4250   -2.0380   -0.8560 H         1 LIG      0.081800
     53 H21         4.6910    4.0000    1.3040 H         1 LIG      0.055100
     54 H22         8.1160    0.9910   -1.2980 H         1 LIG      0.458300
     55 H23         8.4280    2.6040   -0.8440 H         1 LIG      0.458300
@<TRIPOS>BOND
     1    1    7 ar  
     2    2    1 ar  
     3    3    5 ar  
     4    3    2 ar  
     5    4    3 1   
     6    5    6 ar  
     7    6    7 ar  
     8    7    8 1   
     9    9   11 1   
    10    9    8 1   
    11   10    9 1   
    12   11   12 2   
    13   13   11 1   
    14   14   13 1   
    15   15   14 1   
    16   16   15 1   
    17   17   14 1   
    18   18   17 1   
    19   18   19 1   
    20   20   17 1   
    21   20   21 1   
    22   21   15 1   
    23   21   22 1   
    24   22   26 1   
    25   23   22 1   
    26   23   24 2   
    27   24   25 1   
    28   25   30 ar  
    29   26   25 ar  
    30   26   27 ar  
    31   27   28 ar  
    32   28   29 ar  
    33   30   31 1   
    34   30   29 ar  
    35    1   32 1   
    36    2   33 1   
    37    4   34 1   
    38    5   35 1   
    39    6   36 1   
    40    8   37 1   
    41    8   38 1   
    42    9   39 1   
    43   10   40 1   
    44   10   41 1   
    45   10   42 1   
    46   13   43 1   
    47   14   44 1   
    48   15   45 1   
    49   16   46 1   
    50   17   47 1   
    51   18   48 1   
    52   18   49 1   
    53   19   50 1   
    54   21   51 1   
    55   23   52 1   
    56   28   53 1   
    57   31   54 1   
    58   31   55 1   
@<TRIPOS>SUBSTRUCTURE
     1 LIG         1 TEMP              0 ****  ****    0 ROOT
