@<TRIPOS>MOLECULE
QUE
   32    34     1     0     0
SMALL
bcc


@<TRIPOS>ATOM
      1 C           0.6370   -0.0120    4.4810 ca        1 LIG     -0.353000
      2 C1         -0.5190    0.1190    3.7370 ca        1 LIG      0.254100
      3 C2         -0.4510    0.0550    2.3390 ca        1 LIG     -0.281600
      4 C3          0.7840   -0.1420    1.6990 ca        1 LIG      0.220100
      5 C4          1.9350   -0.2670    2.4630 ca        1 LIG     -0.234000
      6 C5          1.8590   -0.2080    3.8450 ca        1 LIG      0.224100
      7 C6         -1.6580    0.1920    1.5090 c         1 LIG      0.583900
      8 C7         -1.4960    0.1140    0.1010 cc        1 LIG     -0.062100
      9 C8         -0.2520   -0.0790   -0.4190 cd        1 LIG      0.133900
     10 C9         -0.1000   -0.1580   -1.8840 ca        1 LIG     -0.051800
     11 C10        -0.9560   -0.9690   -2.6340 ca        1 LIG     -0.086000
     12 C11        -0.8130   -1.0410   -4.0030 ca        1 LIG     -0.181000
     13 C12         0.1800   -0.3100   -4.6390 ca        1 LIG      0.058100
     14 C13         1.0370    0.4990   -3.8970 ca        1 LIG      0.100100
     15 C14         0.8960    0.5810   -2.5250 ca        1 LIG     -0.100000
     16 O           0.8410   -0.2020    0.3520 os        1 LIG     -0.209200
     17 O1         -2.7570    0.3650    2.0120 o         1 LIG     -0.538100
     18 O2          2.0100    1.2140   -4.5250 oh        1 LIG     -0.493100
     19 O3          0.3180   -0.3860   -5.9890 oh        1 LIG     -0.514100
     20 O4         -2.5740    0.2320   -0.7200 oh        1 LIG     -0.491100
     21 O5          2.9890   -0.3360    4.5860 oh        1 LIG     -0.482100
     22 O6         -1.7110    0.3110    4.3550 oh        1 LIG     -0.451100
     23 H           0.5950    0.0360    5.5110 ha        1 LIG      0.144000
     24 H1          2.8480   -0.4040    2.0020 ha        1 LIG      0.178000
     25 H2         -1.6950   -1.5140   -2.1630 ha        1 LIG      0.162000
     26 H3         -1.4460   -1.6400   -4.5560 ha        1 LIG      0.140000
     27 H4          1.5250    1.1870   -1.9760 ha        1 LIG      0.166000
     28 H5          2.1060    1.1580   -5.4550 ho        1 LIG      0.437000
     29 H6         -0.2580   -0.9300   -6.4890 ho        1 LIG      0.432000
     30 H7         -3.4270    0.3650   -0.3570 ho        1 LIG      0.445000
     31 H8          2.9430   -0.2970    5.5210 ho        1 LIG      0.428000
     32 H9         -1.7520    0.3530    5.2900 ho        1 LIG      0.424000
@<TRIPOS>BOND
     1    1    2 ar  
     2    1    6 ar  
     3    2    3 ar  
     4    2   22 1   
     5    3    4 ar  
     6    3    7 1   
     7    4    5 ar  
     8    4   16 1   
     9    5    6 ar  
    10    6   21 1   
    11    7    8 1   
    12    7   17 2   
    13    8    9 2   
    14    8   20 1   
    15    9   10 1   
    16    9   16 1   
    17   10   11 ar  
    18   10   15 ar  
    19   11   12 ar  
    20   12   13 ar  
    21   13   14 ar  
    22   13   19 1   
    23   14   15 ar  
    24   14   18 1   
    25    1   23 1   
    26    5   24 1   
    27   11   25 1   
    28   12   26 1   
    29   15   27 1   
    30   18   28 1   
    31   19   29 1   
    32   20   30 1   
    33   21   31 1   
    34   22   32 1   
@<TRIPOS>SUBSTRUCTURE
     1 LIG         1 TEMP              0 ****  ****    0 ROOT
