@<TRIPOS>MOLECULE
SM5
   52    56     1     0     0
SMALL
bcc


@<TRIPOS>ATOM
      1 C          -4.2390    0.5500   -0.1880 C.3       1 LIG      0.079000
      2 N          -2.8700    0.0290   -0.1470 N.a       1 LIG      0.055400
      3 C1          2.8880    0.0050    1.1280 C.a       1 LIG     -0.083000
      4 C2          1.5630   -0.3480    1.0200 C.a       1 LIG     -0.115000
      5 C3          0.7430    0.2960    0.0940 C.a       1 LIG     -0.025000
      6 C4          1.2680    1.2960   -0.7230 C.a       1 LIG     -0.120000
      7 C5          2.5970    1.6520   -0.6180 C.a       1 LIG     -0.071300
      8 C6          3.4190    1.0150    0.3110 C.a       1 LIG     -0.112900
      9 C7          0.8630   -2.6640   -0.8370 C.a       1 LIG     -0.221800
     10 N1         -2.5050   -1.3190   -0.2400 N.c       1 LIG     -0.492800
     11 C8          1.5790   -3.8430   -0.8630 C.a       1 LIG      0.394700
     12 C9         -0.0910   -4.9700    0.2630 C.a       1 LIG      0.394700
     13 C10        -5.6740    2.4680   -0.8930 C.3       1 LIG      0.109800
     14 C11        -0.8710   -3.8350    0.3380 C.a       1 LIG     -0.221800
     15 C12        -1.7500    0.7680   -0.0190 C.c       1 LIG     -0.150300
     16 C13        -0.3920   -2.6460   -0.2220 C.a       1 LIG     -0.104500
     17 C14        -0.6850   -0.0840   -0.0230 C.d       1 LIG     -0.145300
     18 C15        -4.7590    0.7360    1.2400 C.3       1 LIG     -0.132400
     19 C16        -6.1660    1.3360    1.1920 C.3       1 LIG      0.109800
     20 C17        -1.1940   -1.4010   -0.1650 C.d       1 LIG      0.397800
     21 N2          1.0910   -4.9440   -0.3220 N.b       1 LIG     -0.644000
     22 N3         -6.1250    2.6280    0.4950 N.4       1 LIG     -0.766000
     23 C18        -4.2510    1.9010   -0.9080 C.3       1 LIG     -0.132400
     24 C19         3.3950    2.6870   -1.3750 C.3       1 LIG     -0.038100
     25 C20         4.8230    2.6250   -0.8180 C.3       1 LIG     -0.140700
     26 C21         4.7910    1.5550    0.2460 C.e       1 LIG      0.395900
     27 N4          5.7910    1.1780    0.9760 N.2       1 LIG     -0.425200
     28 O           7.0590    1.7850    0.8060 O.h       1 LIG     -0.347500
     29 H          -4.8650   -0.1420   -0.7110 H         1 LIG      0.101700
     30 H1          3.4940   -0.4740    1.8120 H         1 LIG      0.160000
     31 H2          1.1760   -1.0890    1.6240 H         1 LIG      0.146000
     32 H3          0.6610    1.7720   -1.4090 H         1 LIG      0.128000
     33 H4          1.2480   -1.8080   -1.2650 H         1 LIG      0.153000
     34 H5          2.5080   -3.8650   -1.3110 H         1 LIG      0.032600
     35 H6         -0.4370   -5.8530    0.6710 H         1 LIG      0.032600
     36 H7         -5.6840    3.4190   -1.3830 H         1 LIG      0.111700
     37 H8         -6.3300    1.7960   -1.4050 H         1 LIG      0.111700
     38 H9         -1.7930   -3.8620    0.8000 H         1 LIG      0.153000
     39 H10        -1.7060    1.7960    0.0670 H         1 LIG      0.173000
     40 H11        -4.7920   -0.2120    1.7350 H         1 LIG      0.100950
     41 H12        -4.1070    1.3940    1.7760 H         1 LIG      0.100950
     42 H13        -6.5260    1.4800    2.1890 H         1 LIG      0.111700
     43 H14        -6.8200    0.6700    0.6690 H         1 LIG      0.111700
     44 H15        -7.0600    3.0370    0.4960 H         1 LIG      0.455300
     45 H16        -5.4660    3.2360    0.9810 H         1 LIG      0.455300
     46 H17        -3.5910    2.5790   -0.4080 H         1 LIG      0.100950
     47 H18        -3.9260    1.7720   -1.9190 H         1 LIG      0.100950
     48 H19         2.9790    3.6610   -1.2200 H         1 LIG      0.060200
     49 H20         3.3800    2.4950   -2.4280 H         1 LIG      0.060200
     50 H21         5.1010    3.5670   -0.3940 H         1 LIG      0.073700
     51 H22         5.5390    2.4060   -1.5820 H         1 LIG      0.073700
     52 H23         7.7830    1.5130    1.3340 H         1 LIG      0.446000
@<TRIPOS>BOND
     1    2    1 1   
     2    2   15 ar  
     3    4    3 ar  
     4    5    4 ar  
     5    6    7 ar  
     6    6    5 ar  
     7    7    8 ar  
     8    8   26 1   
     9    8    3 ar  
    10   10   20 ar  
    11   10    2 ar  
    12   11    9 ar  
    13   12   14 ar  
    14   12   21 ar  
    15   14   16 ar  
    16   16   20 1   
    17   16    9 ar  
    18   17   15 ar  
    19   17    5 1   
    20   18   19 1   
    21   18    1 1   
    22   20   17 ar  
    23   21   11 ar  
    24   22   13 1   
    25   22   19 1   
    26   23   13 1   
    27   23    1 1   
    28   24    7 1   
    29   24   25 1   
    30   25   26 1   
    31   26   27 2   
    32   27   28 1   
    33    1   29 1   
    34    3   30 1   
    35    4   31 1   
    36    6   32 1   
    37    9   33 1   
    38   11   34 1   
    39   12   35 1   
    40   13   36 1   
    41   13   37 1   
    42   14   38 1   
    43   15   39 1   
    44   18   40 1   
    45   18   41 1   
    46   19   42 1   
    47   19   43 1   
    48   22   44 1   
    49   22   45 1   
    50   23   46 1   
    51   23   47 1   
    52   24   48 1   
    53   24   49 1   
    54   25   50 1   
    55   25   51 1   
    56   28   52 1   
@<TRIPOS>SUBSTRUCTURE
     1 LIG         1 TEMP              0 ****  ****    0 ROOT
