@<TRIPOS>MOLECULE
5X8
   43    45     1     0     0
SMALL
bcc


@<TRIPOS>ATOM
      1 N1         -6.2440   -1.1010   -0.4210 nb        1 <1>     -0.783000
      2 C1         -4.0350   -1.5740    0.2260 ca        1 <1>     -0.237200
      3 C2         -1.9040   -1.3520    0.5610 cc        1 <1>      0.363700
      4 C3         -5.8510    0.0840   -0.8510 ca        1 <1>      0.684900
      5 C4         -5.3830   -1.9570    0.1190 ca        1 <1>      0.777200
      6 N2         -4.6000    0.4850   -0.7720 nb        1 <1>     -0.759000
      7 C5         -3.6680   -0.3030   -0.2460 ca        1 <1>      0.430800
      8 O1          7.6730   -0.2150    0.3040 o         1 <1>     -0.769800
      9 C6          6.7050   -1.1410    0.2220 c         1 <1>      0.943600
     10 O2          6.8300   -2.1970    0.7950 o         1 <1>     -0.769800
     11 C7          5.4630   -0.8640   -0.5850 c3        1 <1>     -0.065500
     12 N3          4.8030   -2.1330   -0.9200 n4        1 <1>     -0.829600
     13 C8          4.5070    0.0070    0.2330 c3        1 <1>     -0.019300
     14 S1          3.0120    0.3410   -0.7390 ss        1 <1>     -0.312200
     15 C9          2.0200    1.3680    0.3790 c3        1 <1>     -0.049300
     16 C10         0.7020    1.7410   -0.3050 c3        1 <1>      0.103100
     17 O3         -0.0990    0.5630   -0.4960 os        1 <1>     -0.465600
     18 C11        -0.1010    2.7010    0.5940 c3        1 <1>      0.084100
     19 O4         -0.3270    3.9420   -0.0780 oh        1 <1>     -0.573800
     20 C12        -1.4410    1.9630    0.8350 c3        1 <1>      0.094100
     21 O5         -2.5420    2.8720    0.7720 oh        1 <1>     -0.558800
     22 C13        -1.4790    0.9640   -0.3490 c3        1 <1>      0.204800
     23 N4         -2.3190   -0.1910   -0.0220 na        1 <1>     -0.281000
     24 N5         -2.9130   -2.1620    0.7040 nd        1 <1>     -0.490100
     25 N6         -5.8040   -3.1970    0.5670 nh        1 <1>     -0.875500
     26 H1         -0.9340   -1.5580    0.8470 h5        1 <1>      0.070800
     27 H2         -6.5510    0.7200   -1.2640 h5        1 <1>      0.056100
     28 H3          5.7300   -0.3520   -1.4860 hx        1 <1>      0.099700
     29 H4          4.5480   -2.6210   -0.0610 hn        1 <1>      0.452800
     30 H5          5.4400   -2.7140   -1.4650 hn        1 <1>      0.452800
     31 H6          3.9620   -1.9450   -1.4660 hn        1 <1>      0.452800
     32 H7          4.9870    0.9310    0.4770 h1        1 <1>      0.113700
     33 H8          4.2400   -0.5050    1.1340 h1        1 <1>      0.113700
     34 H9          2.5620    2.2590    0.6200 h1        1 <1>      0.087200
     35 H10         1.8140    0.8220    1.2760 h1        1 <1>      0.087200
     36 H11         0.9300    2.2010   -1.2440 h1        1 <1>      0.103700
     37 H12         0.4090    2.9360    1.5050 h1        1 <1>      0.111700
     38 H13        -0.7900    3.7770   -0.9140 ho        1 <1>      0.410000
     39 H14        -1.5110    1.4970    1.7960 h1        1 <1>      0.102700
     40 H15        -2.5340    3.3300   -0.0830 ho        1 <1>      0.418000
     41 H16        -1.8890    1.3890   -1.2420 h2        1 <1>      0.130700
     42 H17        -6.7510   -3.4540    0.4870 hn        1 <1>      0.443800
     43 H18        -5.1570   -3.8220    0.9660 hn        1 <1>      0.443800
@<TRIPOS>BOND
     1    1    5 ar  
     2    2    5 ar  
     3    2   24 1   
     4    3   24 2   
     5    4    1 ar  
     6    5   25 1   
     7    6    4 ar  
     8    6    7 ar  
     9    7   23 1   
    10    7    2 ar  
    11    9   11 1   
    12    9    8 1   
    13   10    9 1   
    14   11   13 1   
    15   12   11 1   
    16   14   13 1   
    17   14   15 1   
    18   15   16 1   
    19   16   17 1   
    20   16   18 1   
    21   17   22 1   
    22   18   20 1   
    23   19   18 1   
    24   21   20 1   
    25   22   20 1   
    26   22   23 1   
    27   23    3 1   
    28    3   26 1   
    29    4   27 1   
    30   11   28 1   
    31   12   29 1   
    32   12   30 1   
    33   12   31 1   
    34   13   32 1   
    35   13   33 1   
    36   15   34 1   
    37   15   35 1   
    38   16   36 1   
    39   18   37 1   
    40   19   38 1   
    41   20   39 1   
    42   21   40 1   
    43   22   41 1   
    44   25   42 1   
    45   25   43 1   
@<TRIPOS>SUBSTRUCTURE
     1 <1>         1 TEMP              0 ****  ****    0 ROOT
