@<TRIPOS>MOLECULE
TGP
   35    37     1     0     0
SMALL
bcc


@<TRIPOS>ATOM
      1 S           2.4140   -1.1880   -3.8070 ss        1 LIG     -0.574500
      2 N           1.8180    1.9230   -0.0490 na        1 LIG     -0.203900
      3 C           1.8820    2.9590    0.8400 cc        1 LIG      0.005800
      4 N1          2.2250    2.8660    2.1440 nc        1 LIG     -0.618100
      5 C1          2.2030    4.0260    2.7650 cd        1 LIG      0.564800
      6 N2          2.5190    4.1450    4.0930 nh        1 LIG     -0.862800
      7 N3          1.8530    5.2330    2.1150 n         1 LIG     -0.494400
      8 C2          1.4940    5.3510    0.7650 c         1 LIG      0.639000
      9 O           1.1910    6.3940    0.2000 o         1 LIG     -0.654500
     10 C3          1.5280    4.0700    0.1140 cd        1 LIG      0.219800
     11 N4          1.2470    3.7670   -1.1850 nd        1 LIG     -0.663000
     12 C4          1.4310    2.4630   -1.2530 cc        1 LIG      0.444400
     13 C5          0.8780   -0.3120    0.5780 c3        1 LIG     -0.141400
     14 C6          1.3480   -1.5000   -2.3770 c3        1 LIG      0.120700
     15 C7          2.1560   -1.4320   -1.0880 c3        1 LIG      0.071100
     16 O1          2.6780   -0.0930   -0.9580 os        1 LIG     -0.361600
     17 C8          2.1010    0.5160    0.2110 c3        1 LIG      0.243800
     18 C9          1.3090   -1.6970    0.1520 c3        1 LIG      0.106100
     19 O2          2.1270   -2.2500    1.1800 oh        1 LIG     -0.624800
     20 O3          1.9780   -0.9200   -6.8070 o         1 LIG     -0.860167
     21 P           1.1490   -1.3200   -5.4710 p5        1 LIG      1.170900
     22 O4          0.5110   -2.6800   -5.5680 o         1 LIG     -0.860167
     23 O5          0.0580   -0.1210   -5.3970 o         1 LIG     -0.860167
     24 H           2.7730    3.3480    4.6120 hn        1 LIG      0.372800
     25 H1          2.4920    5.0280    4.5280 hn        1 LIG      0.372800
     26 H2          1.8620    6.0570    2.6540 hn        1 LIG      0.318500
     27 H3          1.2990    1.9090   -2.1140 h5        1 LIG      0.210100
     28 H4          0.0120    0.0110    0.0390 hc        1 LIG      0.055200
     29 H5          0.5980   -0.2410    1.6080 hc        1 LIG      0.055200
     30 H6          0.9110   -2.4720   -2.4680 h1        1 LIG      0.029200
     31 H7          0.5820   -0.7540   -2.3460 h1        1 LIG      0.029200
     32 H8          2.9190   -2.1800   -1.1480 h1        1 LIG      0.198700
     33 H9          2.7670    0.5190    1.0480 h2        1 LIG      0.066700
     34 H10         0.4980   -2.3710   -0.0300 h1        1 LIG      0.067700
     35 H11         2.8690   -1.6520    1.3600 ho        1 LIG      0.415000
@<TRIPOS>BOND
     1    1   14 1   
     2    1   21 1   
     3    2    3 ar  
     4    2   12 ar  
     5    2   17 1   
     6    3    4 1   
     7    3   10 ar  
     8    4    5 2   
     9    5    6 1   
    10    5    7 1   
    11    7    8 1   
    12    8    9 2   
    13    8   10 1   
    14   10   11 ar  
    15   11   12 ar  
    16   13   17 1   
    17   13   18 1   
    18   14   15 1   
    19   15   16 1   
    20   15   18 1   
    21   16   17 1   
    22   18   19 1   
    23   20   21 1   
    24   21   22 1   
    25   21   23 1   
    26    6   24 1   
    27    6   25 1   
    28    7   26 1   
    29   12   27 1   
    30   13   28 1   
    31   13   29 1   
    32   14   30 1   
    33   14   31 1   
    34   15   32 1   
    35   17   33 1   
    36   18   34 1   
    37   19   35 1   
@<TRIPOS>SUBSTRUCTURE
     1 LIG         1 TEMP              0 ****  ****    0 ROOT
