@<TRIPOS>MOLECULE
AT2
   40    41     1     0     0
SMALL
bcc


@<TRIPOS>ATOM
      1 C          -4.4180    2.2940    1.4900 C.3       1 LIG     -0.061800
      2 C1         -4.2590    1.1420    0.5320 C.a       1 LIG     -0.020300
      3 C2         -5.3260    0.7130   -0.2470 C.a       1 LIG     -0.278300
      4 C3         -5.1470   -0.3450   -1.1150 C.a       1 LIG      0.426200
      5 C4         -2.9380   -0.5720   -0.4870 C.a       1 LIG      0.606200
      6 C5         -3.0470    0.4870    0.4080 C.a       1 LIG     -0.265300
      7 C6         -0.5700   -0.8260    0.1780 C.3       1 LIG      0.186500
      8 C7          0.1520    0.3260   -0.5260 C.3       1 LIG     -0.125900
      9 C8          1.3400    0.7810    0.3350 C.3       1 LIG      0.072500
     10 N          -3.9770   -0.9480   -1.2160 N.b       1 LIG     -0.719000
     11 N1         -1.7260   -1.2390   -0.6210 N.h       1 LIG     -0.808900
     12 N2          2.1910   -0.3850    0.6100 N.        1 LIG     -0.404800
     13 C9          1.5790   -1.5820    1.2040 C.3       1 LIG      0.072500
     14 C10         0.3890   -2.0080    0.3390 C.3       1 LIG     -0.125900
     15 C11         3.5080   -0.3560    0.3280 C.        1 LIG      0.721100
     16 O           4.2020   -1.3250    0.5650 O.3       1 LIG     -0.584000
     17 O1          4.0560    0.7470   -0.2160 O.2       1 LIG     -0.443900
     18 C12         5.4760    0.7790   -0.5200 C.3       1 LIG      0.149400
     19 C13         5.8370    2.1370   -1.1250 C.3       1 LIG     -0.102100
     20 H          -5.4210    2.6630    1.4400 H         1 LIG      0.050033
     21 H1         -3.7370    3.0750    1.2250 H         1 LIG      0.050033
     22 H2         -4.2090    1.9620    2.4850 H         1 LIG      0.050033
     23 H3         -6.2430    1.1810   -0.1770 H         1 LIG      0.144000
     24 H4         -5.9380   -0.6690   -1.6930 H         1 LIG      0.020100
     25 H5         -2.2340    0.7800    0.9720 H         1 LIG      0.146000
     26 H6         -0.9010   -0.5030    1.1430 H         1 LIG      0.062700
     27 H7         -0.5250    1.1430   -0.6610 H         1 LIG      0.061700
     28 H8          0.5060   -0.0020   -1.4810 H         1 LIG      0.061700
     29 H9          0.9820    1.1920    1.2560 H         1 LIG      0.071450
     30 H10         1.9020    1.5300   -0.1820 H         1 LIG      0.071450
     31 H11        -1.6450   -1.9890   -1.2530 H         1 LIG      0.396800
     32 H12         1.2420   -1.3600    2.1950 H         1 LIG      0.071450
     33 H13         2.2970   -2.3730    1.2500 H         1 LIG      0.071450
     34 H14         0.7400   -2.3170   -0.6240 H         1 LIG      0.061700
     35 H15        -0.1220   -2.8220    0.8090 H         1 LIG      0.061700
     36 H16         5.7090    0.0040   -1.2200 H         1 LIG      0.055200
     37 H17         6.0370    0.6280    0.3790 H         1 LIG      0.055200
     38 H18         5.2760    2.2880   -2.0240 H         1 LIG      0.048367
     39 H19         6.8830    2.1610   -1.3490 H         1 LIG      0.048367
     40 H20         5.6040    2.9120   -0.4250 H         1 LIG      0.048367
@<TRIPOS>BOND
     1    1    2 1   
     2    2    3 ar  
     3    2    6 ar  
     4    3    4 ar  
     5    4   10 ar  
     6    5    6 ar  
     7    5   10 ar  
     8    5   11 1   
     9    7    8 1   
    10    7   11 1   
    11    7   14 1   
    12    8    9 1   
    13    9   12 1   
    14   12   13 1   
    15   12   15 1   
    16   13   14 1   
    17   15   16 2   
    18   15   17 1   
    19   17   18 1   
    20   18   19 1   
    21    1   20 1   
    22    1   21 1   
    23    1   22 1   
    24    3   23 1   
    25    4   24 1   
    26    6   25 1   
    27    7   26 1   
    28    8   27 1   
    29    8   28 1   
    30    9   29 1   
    31    9   30 1   
    32   11   31 1   
    33   13   32 1   
    34   13   33 1   
    35   14   34 1   
    36   14   35 1   
    37   18   36 1   
    38   18   37 1   
    39   19   38 1   
    40   19   39 1   
    41   19   40 1   
@<TRIPOS>SUBSTRUCTURE
     1 LIG         1 TEMP              0 ****  ****    0 ROOT
