@<TRIPOS>MOLECULE
HE2
   21    20     1     0     0
SMALL
bcc


@<TRIPOS>ATOM
      1 C           3.8090   -0.3510    0.0000 C.3       1 LIG     -0.093100
      2 C1          2.5510    0.5210    0.0000 C.3       1 LIG     -0.080400
      3 C2          1.3100   -0.3740    0.0000 C.3       1 LIG     -0.079400
      4 C3          0.0530    0.4980    0.0000 C.3       1 LIG     -0.076400
      5 C4         -1.1880   -0.3960    0.0000 C.3       1 LIG     -0.120400
      6 C5         -2.4460    0.4750    0.0000 C.3       1 LIG      0.127400
      7 O          -3.6050   -0.3600    0.0000 O.h       1 LIG     -0.598800
      8 H           4.6770    0.2750    0.0000 H         1 LIG      0.033367
      9 H1          3.8150   -0.9690   -0.8740 H         1 LIG      0.033367
     10 H2          3.8150   -0.9690    0.8740 H         1 LIG      0.033367
     11 H3          2.5450    1.1390   -0.8740 H         1 LIG      0.039200
     12 H4          2.5450    1.1390    0.8740 H         1 LIG      0.039200
     13 H5          1.3160   -0.9920    0.8740 H         1 LIG      0.040700
     14 H6          1.3160   -0.9920   -0.8740 H         1 LIG      0.040700
     15 H7          0.0480    1.1160   -0.8740 H         1 LIG      0.041200
     16 H8          0.0480    1.1160    0.8740 H         1 LIG      0.041200
     17 H9         -1.1820   -1.0140    0.8740 H         1 LIG      0.047200
     18 H10        -1.1820   -1.0130   -0.8740 H         1 LIG      0.047200
     19 H11        -2.4520    1.0930   -0.8740 H         1 LIG      0.044200
     20 H12        -2.4520    1.0920    0.8740 H         1 LIG      0.044200
     21 H13        -3.6000   -0.9200   -0.7920 H         1 LIG      0.396000
@<TRIPOS>BOND
     1    1    2 1   
     2    2    3 1   
     3    3    4 1   
     4    4    5 1   
     5    5    6 1   
     6    6    7 1   
     7    1    8 1   
     8    1    9 1   
     9    1   10 1   
    10    2   11 1   
    11    2   12 1   
    12    3   13 1   
    13    3   14 1   
    14    4   15 1   
    15    4   16 1   
    16    5   17 1   
    17    5   18 1   
    18    6   19 1   
    19    6   20 1   
    20    7   21 1   
@<TRIPOS>SUBSTRUCTURE
     1 LIG         1 TEMP              0 ****  ****    0 ROOT
