@<TRIPOS>MOLECULE
6BN
   67    70     1     0     0
SMALL
bcc


@<TRIPOS>ATOM
      1 C           0.7790   -2.1180    0.3520 C.a       1 LIG     -0.047300
      2 C1          1.0890   -0.8350    0.8090 C.a       1 LIG     -0.104600
      3 C2          0.0670    0.0650    1.1070 C.a       1 LIG      0.055400
      4 C3          2.5070   -0.4460    0.9490 C.        1 LIG      0.713100
      5 C4          3.1180   -2.3540   -0.4550 C.3       1 LIG      0.088000
      6 C5          5.3700    0.1150   -0.2630 C.c       1 LIG     -0.241400
      7 C6          6.0940    2.3420   -0.7250 C.d       1 LIG     -0.248000
      8 C7          6.7770    3.0540   -2.9940 C.3       1 LIG     -0.076900
      9 C8          5.4210    1.7340    1.6310 C.3       1 LIG     -0.071200
     10 C9          6.7350    1.5570    2.3940 C.3       1 LIG     -0.085100
     11 C10        -3.5930    0.1160    0.9530 C.3       1 LIG      0.143100
     12 C11        -5.3350   -0.1580   -0.8160 C.3       1 LIG      0.083000
     13 C12        -1.2550   -0.3190    0.9330 C.a       1 LIG      0.103100
     14 C13        -1.5540   -1.5900    0.4650 C.a       1 LIG     -0.146000
     15 C14        -0.5380   -2.4870    0.1760 C.a       1 LIG      0.022400
     16 Cl          0.4460    1.6540    1.6930 C.l       1 LIG     -0.029400
     17 N           3.4620   -1.2260    0.4090 N.        1 LIG     -0.466800
     18 C15         1.8930   -3.0940    0.0760 C.3       1 LIG     -0.063100
     19 C16         4.8710   -0.9400    0.6910 C.3       1 LIG      0.154200
     20 C17         5.6300    1.3780    0.1810 C.d       1 LIG      0.055800
     21 C18         6.2780    2.0130   -2.0250 C.c       1 LIG      0.066400
     22 N1          6.0280    0.7520   -2.4640 N.        1 LIG     -0.435100
     23 C19         5.5770   -0.1940   -1.6180 C.        1 LIG      0.693700
     24 O           5.3490   -1.3200   -2.0290 O.3       1 LIG     -0.671500
     25 O1          2.8090    0.5690    1.5460 O.3       1 LIG     -0.635500
     26 Cl1        -0.9240   -4.0750   -0.4080 C.l       1 LIG     -0.080400
     27 O2         -2.2580    0.5520    1.2200 O.2       1 LIG     -0.325900
     28 C20        -3.9170    0.3430   -0.5250 C.3       1 LIG     -0.120400
     29 N2         -6.2670    0.4970    0.1130 N.        1 LIG     -0.452800
     30 C21        -5.9980    0.4170    1.5560 C.3       1 LIG      0.083000
     31 C22        -4.5720    0.9110    1.8190 C.3       1 LIG     -0.120400
     32 C23        -7.3470    1.1570   -0.3490 C.        1 LIG      0.623100
     33 C24        -7.6740    1.1310   -1.8200 C.3       1 LIG      0.086100
     34 C25        -8.1120   -0.2790   -2.2200 C.3       1 LIG     -0.127100
     35 O3         -8.7310    2.0530   -2.0890 O.h       1 LIG     -0.587800
     36 O4         -8.0560    1.7720    0.4190 O.3       1 LIG     -0.608100
     37 H           3.9460   -3.0300   -0.4940 H         1 LIG      0.069700
     38 H1          2.8940   -1.9800   -1.4320 H         1 LIG      0.069700
     39 H2          6.2950    3.3010   -0.4010 H         1 LIG      0.151000
     40 H3          6.9190    3.9810   -2.4790 H         1 LIG      0.060700
     41 H4          6.0590    3.1860   -3.7760 H         1 LIG      0.060700
     42 H5          7.7070    2.7330   -3.4140 H         1 LIG      0.060700
     43 H6          5.0990    2.7520    1.7060 H         1 LIG      0.072200
     44 H7          4.6750    1.0930    2.0520 H         1 LIG      0.072200
     45 H8          7.4810    2.1980    1.9730 H         1 LIG      0.038367
     46 H9          7.0560    0.5390    2.3190 H         1 LIG      0.038367
     47 H10         6.5870    1.8100    3.4230 H         1 LIG      0.038367
     48 H11        -3.6810   -0.9260    1.1810 H         1 LIG      0.056700
     49 H12        -5.6020    0.0830   -1.8240 H         1 LIG      0.062700
     50 H13        -5.3800   -1.2200   -0.6890 H         1 LIG      0.062700
     51 H14        -2.5380   -1.8690    0.3310 H         1 LIG      0.157000
     52 H15         2.1510   -3.6020    0.9820 H         1 LIG      0.075200
     53 H16         1.5660   -3.8010   -0.6570 H         1 LIG      0.075200
     54 H17         5.4480   -1.8330    0.5690 H         1 LIG      0.076700
     55 H18         4.9690   -0.5870    1.6960 H         1 LIG      0.076700
     56 H19         6.1780    0.5270   -3.4110 H         1 LIG      0.331500
     57 H20        -3.8540    1.3880   -0.7480 H         1 LIG      0.067700
     58 H21        -3.2170   -0.1920   -1.1310 H         1 LIG      0.067700
     59 H22        -6.0940   -0.5970    1.8840 H         1 LIG      0.062700
     60 H23        -6.6980    1.0240    2.0910 H         1 LIG      0.062700
     61 H24        -4.5030    1.9500    1.5740 H         1 LIG      0.067700
     62 H25        -4.3300    0.7730    2.8520 H         1 LIG      0.067700
     63 H26        -6.8080    1.4080   -2.3830 H         1 LIG      0.085700
     64 H27        -8.9790   -0.5560   -1.6570 H         1 LIG      0.052033
     65 H28        -7.3200   -0.9690   -2.0190 H         1 LIG      0.052033
     66 H29        -8.3440   -0.2970   -3.2640 H         1 LIG      0.052033
     67 H30        -9.5170    1.8020   -1.5790 H         1 LIG      0.427000
@<TRIPOS>BOND
     1    1   15 ar  
     2    1    2 ar  
     3    2    3 ar  
     4    3   16 1   
     5    4    2 1   
     6    4   25 2   
     7    5   17 1   
     8    6   20 2   
     9    9   10 1   
    10   11   31 1   
    11   12   29 1   
    12   13    3 ar  
    13   13   27 1   
    14   14   13 ar  
    15   15   14 ar  
    16   17    4 1   
    17   18    5 1   
    18   18    1 1   
    19   19   17 1   
    20   19    6 1   
    21   20    7 1   
    22   20    9 1   
    23   21    8 1   
    24   21    7 2   
    25   22   21 1   
    26   23   22 1   
    27   23    6 1   
    28   24   23 2   
    29   26   15 1   
    30   27   11 1   
    31   28   12 1   
    32   28   11 1   
    33   29   32 1   
    34   29   30 1   
    35   31   30 1   
    36   32   36 2   
    37   33   35 1   
    38   33   32 1   
    39   34   33 1   
    40    5   37 1   
    41    5   38 1   
    42    7   39 1   
    43    8   40 1   
    44    8   41 1   
    45    8   42 1   
    46    9   43 1   
    47    9   44 1   
    48   10   45 1   
    49   10   46 1   
    50   10   47 1   
    51   11   48 1   
    52   12   49 1   
    53   12   50 1   
    54   14   51 1   
    55   18   52 1   
    56   18   53 1   
    57   19   54 1   
    58   19   55 1   
    59   22   56 1   
    60   28   57 1   
    61   28   58 1   
    62   30   59 1   
    63   30   60 1   
    64   31   61 1   
    65   31   62 1   
    66   33   63 1   
    67   34   64 1   
    68   34   65 1   
    69   34   66 1   
    70   35   67 1   
@<TRIPOS>SUBSTRUCTURE
     1 LIG         1 TEMP              0 ****  ****    0 ROOT
