@<TRIPOS>MOLECULE
O44
   66    70     1     0     0
SMALL
bcc


@<TRIPOS>ATOM
      1 O          -8.3380    1.2590   -1.0930 o         1 LIG     -0.654300
      2 S          -7.5640    0.3930   -0.2740 sy        1 LIG      1.710000
      3 O1         -7.3680   -0.9840   -0.5670 o         1 LIG     -0.654300
      4 C          -5.9590    1.1120   -0.1670 ca        1 LIG     -0.385500
      5 C1         -5.3610    1.6390   -1.2960 ca        1 LIG      0.003000
      6 C2         -4.1010    2.2030   -1.2120 ca        1 LIG     -0.136500
      7 C3         -5.3010    1.1540    1.0480 ca        1 LIG      0.003000
      8 C4         -4.0420    1.7180    1.1320 ca        1 LIG     -0.136500
      9 C5         -3.4410    2.2400    0.0020 ca        1 LIG     -0.109300
     10 C6         -2.0680    2.8550    0.0940 c3        1 LIG      0.160100
     11 N          -1.0510    1.8210   -0.1420 n4        1 LIG     -0.688400
     12 C7          0.2820    2.4190   -0.2960 c3        1 LIG      0.101300
     13 C8          1.2970    1.3200   -0.6180 c3        1 LIG      0.171300
     14 C9         -1.0560    0.8220    0.9360 c3        1 LIG      0.101300
     15 C10        -0.0410   -0.2770    0.6130 c3        1 LIG      0.171300
     16 N1          1.2920    0.3210    0.4590 nh        1 LIG     -0.739300
     17 C11         2.2500   -0.6540    0.2370 ca        1 LIG      0.880900
     18 N2          3.5150   -0.2900    0.0800 nb        1 LIG     -0.809000
     19 N3          1.8790   -1.9220    0.1920 nb        1 LIG     -0.749000
     20 C12         2.7720   -2.8890   -0.0200 ca        1 LIG      0.449800
     21 C13         2.3450   -4.3100   -0.0700 c         1 LIG      0.561600
     22 N4          1.0470   -4.6300    0.1000 n         1 LIG     -0.533900
     23 C14         0.6260   -6.0320    0.0510 c3        1 LIG      0.159100
     24 C15        -0.8280   -6.1160    0.2640 c1        1 LIG     -0.189100
     25 C16        -1.9880   -6.1830    0.4330 c1        1 LIG     -0.113500
     26 O2          3.1660   -5.1840   -0.2640 o         1 LIG     -0.568100
     27 C17         4.1080   -2.5480   -0.1950 ca        1 LIG     -0.377600
     28 C18         4.4620   -1.1950   -0.1350 ca        1 LIG      0.724200
     29 N5          5.7820   -0.8060   -0.2980 nh        1 LIG     -0.712300
     30 C19         6.1090    0.5470   -0.3420 cc        1 LIG      0.088300
     31 C20         5.2610    1.5880   -0.1150 cd        1 LIG     -0.296300
     32 N6          7.3330    1.0690   -0.6120 na        1 LIG     -0.006600
     33 N7          7.2260    2.4650   -0.5540 nc        1 LIG     -0.512800
     34 C21         5.9890    2.7730   -0.2580 cd        1 LIG      0.364600
     35 C22         5.4430    4.1680   -0.0970 cx        1 LIG     -0.168000
     36 C23         5.3870    4.7470    1.3180 cx        1 LIG     -0.118400
     37 C24         4.0970    4.3220    0.6140 cx        1 LIG     -0.118400
     38 F          -8.2150    0.4570    1.1970 f         1 LIG     -0.272900
     39 H          -5.8550    1.6120   -2.2020 ha        1 LIG      0.182500
     40 H1         -3.6540    2.5960   -2.0550 ha        1 LIG      0.149000
     41 H2         -5.7500    0.7640    1.8920 ha        1 LIG      0.182500
     42 H3         -3.5500    1.7490    2.0390 ha        1 LIG      0.149000
     43 H4         -1.9300    3.2750    1.0680 hx        1 LIG      0.111700
     44 H5         -1.9720    3.6240   -0.6430 hx        1 LIG      0.111700
     45 H6         -1.2850    1.3450   -1.0130 hn        1 LIG      0.445800
     46 H7          0.5610    2.9080    0.6140 hx        1 LIG      0.111200
     47 H8          0.2640    3.1340   -1.0920 hx        1 LIG      0.111200
     48 H9          2.2730    1.7490   -0.7020 h1        1 LIG      0.092950
     49 H10         1.0340    0.8500   -1.5430 h1        1 LIG      0.092950
     50 H11        -0.7920    1.2920    1.8600 hx        1 LIG      0.111200
     51 H12        -2.0330    0.3930    1.0220 hx        1 LIG      0.111200
     52 H13        -0.3210   -0.7650   -0.2970 h1        1 LIG      0.092950
     53 H14        -0.0230   -0.9920    1.4090 h1        1 LIG      0.092950
     54 H15         0.3820   -3.9210    0.2570 hn        1 LIG      0.321500
     55 H16         1.1310   -6.5830    0.8170 h1        1 LIG      0.092200
     56 H17         0.8710   -6.4440   -0.9060 h1        1 LIG      0.092200
     57 H18        -2.9700   -6.2400    0.5760 ha        1 LIG      0.170500
     58 H19         4.8210   -3.2740   -0.3650 ha        1 LIG      0.191000
     59 H20         6.4890   -1.4860   -0.3830 hn        1 LIG      0.475800
     60 H21         4.2590    1.5150    0.1210 ha        1 LIG      0.175000
     61 H22         8.1500    0.5580   -0.8130 hn        1 LIG      0.323700
     62 H23         5.8470    4.4940   -1.0330 hc        1 LIG      0.101700
     63 H24         5.5910    5.7850    1.4800 hc        1 LIG      0.077450
     64 H25         5.8530    4.5100    2.2520 hc        1 LIG      0.077450
     65 H26         3.5660    3.4550    0.9480 hc        1 LIG      0.077450
     66 H27         3.1690    4.8010    0.3810 hc        1 LIG      0.077450
@<TRIPOS>BOND
     1    2    3 2   
     2    2    1 2   
     3    2    4 1   
     4    2   38 1   
     5    4    5 ar  
     6    5    6 ar  
     7    7    4 ar  
     8    7    8 ar  
     9    8    9 ar  
    10    9    6 ar  
    11    9   10 1   
    12   10   11 1   
    13   11   12 1   
    14   12   13 1   
    15   14   15 1   
    16   14   11 1   
    17   15   16 1   
    18   16   13 1   
    19   17   16 1   
    20   17   19 ar  
    21   18   17 ar  
    22   20   19 ar  
    23   20   21 1   
    24   21   22 1   
    25   22   23 1   
    26   23   24 1   
    27   24   25 3   
    28   26   21 2   
    29   27   20 ar  
    30   28   18 ar  
    31   28   27 ar  
    32   29   28 1   
    33   30   29 1   
    34   31   30 ar  
    35   32   30 ar  
    36   33   34 ar  
    37   33   32 ar  
    38   34   31 ar  
    39   35   34 1   
    40   35   36 1   
    41   37   35 1   
    42   37   36 1   
    43    5   39 1   
    44    6   40 1   
    45    7   41 1   
    46    8   42 1   
    47   10   43 1   
    48   10   44 1   
    49   11   45 1   
    50   12   46 1   
    51   12   47 1   
    52   13   48 1   
    53   13   49 1   
    54   14   50 1   
    55   14   51 1   
    56   15   52 1   
    57   15   53 1   
    58   22   54 1   
    59   23   55 1   
    60   23   56 1   
    61   25   57 1   
    62   27   58 1   
    63   29   59 1   
    64   31   60 1   
    65   32   61 1   
    66   35   62 1   
    67   36   63 1   
    68   36   64 1   
    69   37   65 1   
    70   37   66 1   
@<TRIPOS>SUBSTRUCTURE
     1 LIG         1 TEMP              0 ****  ****    0 ROOT
