@<TRIPOS>MOLECULE
B30
   41    42     1     0     0
SMALL
bcc


@<TRIPOS>ATOM
      1 S          -7.0040   -0.6850    0.3100 sy        1 LIG      1.519200
      2 O          -7.8770    0.3990    0.0250 o         1 LIG     -0.639800
      3 O1         -6.9870   -1.4320    1.5180 o         1 LIG     -0.639800
      4 N          -7.2490   -1.7900   -0.8990 n3        1 LIG     -1.029700
      5 C          -2.8070    0.9520   -0.1820 ca        1 LIG     -0.122600
      6 C1         -3.8810    1.5740   -0.8200 ca        1 LIG     -0.105000
      7 C2         -5.1570    1.0700   -0.6660 ca        1 LIG     -0.027500
      8 C3         -5.3720   -0.0490    0.1180 ca        1 LIG     -0.306500
      9 C4         -4.3120   -0.6670    0.7580 ca        1 LIG     -0.027500
     10 C5         -3.0310   -0.1770    0.6080 ca        1 LIG     -0.105000
     11 C6         -1.4380    1.4860   -0.3430 c         1 LIG      0.690700
     12 O2         -1.2460    2.4690   -1.0320 o         1 LIG     -0.671100
     13 N1         -0.4030    0.8830    0.2750 n         1 LIG     -0.579900
     14 C7          0.9540    1.4120    0.1150 c3        1 LIG      0.078000
     15 C8          1.9350    0.5500    0.9140 c3        1 LIG      0.083800
     16 N2          3.2920    1.0800    0.7540 n4        1 LIG     -0.673400
     17 C9          4.1650    0.3760    1.7260 c3        1 LIG      0.004300
     18 C10         5.5950    0.5320    1.0730 c         1 LIG      0.594100
     19 O3          6.1530    1.5370    0.8550 o         1 LIG     -0.366000
     20 O4          6.1120   -0.8250    0.7970 os        1 LIG     -0.377200
     21 C11         3.7420    0.8160   -0.5920 c3        1 LIG      0.004300
     22 C12         3.2620   -0.4220   -1.3020 c         1 LIG      0.594100
     23 O5          3.7130   -1.6610   -0.6830 os        1 LIG     -0.377200
     24 O6          2.5790   -0.3840   -2.2840 o         1 LIG     -0.366000
     25 CU          5.0770   -1.1380   -0.2830 c1        1 LIG      0.427200
     26 H          -8.1880   -2.1800   -0.8180 hn        1 LIG      0.458300
     27 H1         -6.5620   -2.5390   -0.8190 hn        1 LIG      0.458300
     28 H2         -3.7220    2.4090   -1.4050 ha        1 LIG      0.151000
     29 H3         -5.9520    1.5290   -1.1370 ha        1 LIG      0.173000
     30 H4         -4.4800   -1.4960    1.3490 ha        1 LIG      0.173000
     31 H5         -2.2400   -0.6440    1.0790 ha        1 LIG      0.151000
     32 H6         -0.5590    0.0870    0.8340 hn        1 LIG      0.341500
     33 H7          0.9890    2.4190    0.4750 h1        1 LIG      0.095200
     34 H8          1.2240    1.3940   -0.9200 h1        1 LIG      0.095200
     35 H9          1.9000   -0.4570    0.5540 hx        1 LIG      0.117200
     36 H10         1.6650    0.5680    1.9490 hx        1 LIG      0.117200
     37 H11         3.3180    2.0860    0.9200 hn        1 LIG      0.501800
     38 H12         3.8910   -0.6540    1.8170 hx        1 LIG      0.146450
     39 H13         4.1030    0.7700    2.7190 hx        1 LIG      0.146450
     40 H14         4.8100    0.7620   -0.5590 hx        1 LIG      0.146450
     41 H15         3.3160    1.6150   -1.1620 hx        1 LIG      0.146450
@<TRIPOS>BOND
     1    1    2 2   
     2    1    3 2   
     3    1    4 1   
     4    1    8 1   
     5    5    6 ar  
     6    5   10 ar  
     7    5   11 1   
     8    6    7 ar  
     9    7    8 ar  
    10    8    9 ar  
    11    9   10 ar  
    12   11   12 2   
    13   11   13 1   
    14   13   14 1   
    15   14   15 1   
    16   15   16 1   
    17   16   17 1   
    18   16   21 1   
    19   17   18 1   
    20   18   19 2   
    21   18   20 1   
    22   20   25 1   
    23   21   22 1   
    24   22   23 1   
    25   22   24 2   
    26   23   25 1   
    27    4   26 1   
    28    4   27 1   
    29    6   28 1   
    30    7   29 1   
    31    9   30 1   
    32   10   31 1   
    33   13   32 1   
    34   14   33 1   
    35   14   34 1   
    36   15   35 1   
    37   15   36 1   
    38   16   37 1   
    39   17   38 1   
    40   17   39 1   
    41   21   40 1   
    42   21   41 1   
@<TRIPOS>SUBSTRUCTURE
     1 LIG         1 TEMP              0 ****  ****    0 ROOT
