@<TRIPOS>MOLECULE
HYN
   11    11     1     0     0
SMALL
bcc


@<TRIPOS>ATOM
      1 O          -2.2960   -0.5340   -0.0010 O.3       1 LIG     -0.572500
      2 C          -1.1460   -0.1510   -0.0010 C.        1 LIG      0.691500
      3 C1         -0.6590    1.2840    0.0010 C.3       1 LIG     -0.025000
      4 N           0.8080    1.1520    0.0010 N.        1 LIG     -0.524900
      5 N1         -0.0340   -0.9130    0.0030 N.        1 LIG     -0.614500
      6 C2          1.0760   -0.1660   -0.0010 C.        1 LIG      0.779500
      7 O1          2.2010   -0.6270   -0.0020 O.3       1 LIG     -0.598500
      8 H          -0.9960    1.8010    0.8750 H         1 LIG      0.090200
      9 H1         -1.0260    1.8490   -0.8310 H         1 LIG      0.090200
     10 H2          1.4640    1.8860    0.0020 H         1 LIG      0.321500
     11 H3         -0.0380   -1.8970    0.0080 H         1 LIG      0.360500
@<TRIPOS>BOND
     1    1    2 2   
     2    2    3 1   
     3    2    5 1   
     4    3    4 1   
     5    4    6 1   
     6    5    6 1   
     7    6    7 2   
     8    3    8 1   
     9    3    9 1   
    10    4   10 1   
    11    5   11 1   
@<TRIPOS>SUBSTRUCTURE
     1 LIG         1 TEMP              0 ****  ****    0 ROOT
