@<TRIPOS>MOLECULE
SLT
   81    83     1     0     0
SMALL
bcc


@<TRIPOS>ATOM
      1 O           1.3540   -1.6880   -6.9120 o         1 LIG     -0.626100
      2 C           1.3870   -0.4760   -6.8860 c         1 LIG      0.664100
      3 C1          1.9930    0.2850   -8.0370 c3        1 LIG     -0.174100
      4 N           0.8800    0.1890   -5.8290 n         1 LIG     -0.542900
      5 C2          0.2910   -0.5510   -4.7110 c3        1 LIG      0.032700
      6 C3          0.4740    0.2440   -3.4170 c3        1 LIG      0.112100
      7 O1         -0.0760   -0.4820   -2.3210 os        1 LIG     -0.478600
      8 C4          1.9650    0.4830   -3.1710 c3        1 LIG      0.123100
      9 O2          2.6390   -0.7720   -3.0770 oh        1 LIG     -0.598800
     10 C5          2.1480    1.2590   -1.8650 c3        1 LIG      0.084100
     11 O3          1.4150    2.4840   -1.9320 oh        1 LIG     -0.638800
     12 C6          3.6330    1.5640   -1.6580 c3        1 LIG      0.138400
     13 O4          3.8050    2.2890   -0.4380 oh        1 LIG     -0.612800
     14 C7         -1.2050   -0.7580   -4.9650 c3        1 LIG      0.121100
     15 O5         -1.3860   -1.6250   -6.0870 oh        1 LIG     -0.605800
     16 C8         -1.8320   -1.3890   -3.7170 c3        1 LIG     -0.114400
     17 C9         -1.4910   -0.5290   -2.4980 c3        1 LIG      0.214600
     18 C10        -2.0140    0.8680   -2.7100 c         1 LIG      0.898600
     19 O6         -3.1800    1.0580   -3.3470 o         1 LIG     -0.808800
     20 O7         -1.3850    1.8160   -2.3050 o         1 LIG     -0.808800
     21 O8         -2.0980   -1.0920   -1.3340 os        1 LIG     -0.394600
     22 C11        -1.6620   -0.3090   -0.2210 c3        1 LIG      0.079100
     23 C12        -2.8650    0.4040    0.4060 c3        1 LIG      0.095100
     24 C13        -2.4130    1.1060    1.6890 c3        1 LIG      0.075100
     25 O9         -1.9220    0.1430    2.6190 os        1 LIG     -0.486600
     26 C14        -3.6000    1.8490    2.3070 c3        1 LIG      0.138400
     27 O10        -3.1800    2.5050    3.5050 oh        1 LIG     -0.606800
     28 O11        -3.8810   -0.5510    0.7140 oh        1 LIG     -0.574800
     29 C15        -1.0240   -1.2210    0.8320 c3        1 LIG      0.114100
     30 O12         0.1850   -1.7830    0.3190 oh        1 LIG     -0.613800
     31 C16        -0.7160   -0.3970    2.0840 c3        1 LIG      0.335900
     32 O13        -0.0960   -1.2350    3.0620 os        1 LIG     -0.405600
     33 C17         0.3560   -0.3780    4.1120 c3        1 LIG      0.084100
     34 C18         1.8790   -0.4730    4.2290 c3        1 LIG      0.079100
     35 O14         2.3400    0.3970    5.2600 os        1 LIG     -0.440600
     36 C19         2.5190   -0.0700    2.8990 c3        1 LIG      0.134400
     37 O15         3.9410   -0.1670    3.0050 oh        1 LIG     -0.589800
     38 C20        -0.2750   -0.8140    5.4380 c3        1 LIG      0.105100
     39 O16        -1.6860   -0.5880    5.3940 oh        1 LIG     -0.591800
     40 C21         0.3440    0.0100    6.5720 c3        1 LIG      0.092100
     41 O17        -0.1210   -0.4790    7.8310 oh        1 LIG     -0.568800
     42 C22         1.8680   -0.1150    6.5040 c3        1 LIG      0.299900
     43 O18         2.2360   -1.4910    6.6200 oh        1 LIG     -0.615800
     44 H           2.3400   -0.4050   -8.7770 hc        1 LIG      0.060700
     45 H1          2.8150    0.8720   -7.6830 hc        1 LIG      0.060700
     46 H2          1.2540    0.9280   -8.4670 hc        1 LIG      0.060700
     47 H3          0.9060    1.1730   -5.8090 hn        1 LIG      0.303500
     48 H4          0.7760   -1.5000   -4.6220 h1        1 LIG      0.093700
     49 H5         -0.0310    1.1830   -3.5070 h1        1 LIG      0.100700
     50 H6          2.3740    1.0480   -3.9820 h1        1 LIG      0.078700
     51 H7          2.2680   -1.2840   -2.3410 ho        1 LIG      0.412000
     52 H8          1.7870    0.6720   -1.0470 h1        1 LIG      0.059700
     53 H9          1.7420    3.0170   -2.6740 ho        1 LIG      0.465000
     54 H10         3.9940    2.1520   -2.4760 h1        1 LIG      0.046700
     55 H11         4.1820    0.6470   -1.6080 h1        1 LIG      0.046700
     56 H12         3.3070    3.1200   -0.4830 ho        1 LIG      0.415000
     57 H13        -1.6740    0.1810   -5.1730 h1        1 LIG      0.085700
     58 H14        -0.9630   -2.4790   -5.9070 ho        1 LIG      0.413000
     59 H15        -1.4420   -2.3760   -3.5800 hc        1 LIG      0.073700
     60 H16        -2.8940   -1.4440   -3.8350 hc        1 LIG      0.073700
     61 H17        -0.9460    0.4110   -0.5580 h1        1 LIG      0.099700
     62 H18        -3.2580    1.1240   -0.2810 h1        1 LIG      0.154700
     63 H19        -1.6340    1.8010    1.4560 h1        1 LIG      0.068700
     64 H20        -4.3780    1.1510    2.5370 h1        1 LIG      0.062700
     65 H21        -3.9670    2.5750    1.6120 h1        1 LIG      0.062700
     66 H22        -2.8480    1.8460    4.1350 ho        1 LIG      0.413000
     67 H23        -3.5300   -1.2070    1.3370 ho        1 LIG      0.393000
     68 H24        -1.7000   -2.0140    1.0760 h1        1 LIG      0.068700
     69 H25         0.8030   -1.0700    0.0950 ho        1 LIG      0.441000
     70 H26        -0.0570    0.4050    1.8250 h2        1 LIG      0.065700
     71 H27         0.0720    0.6300    3.8920 h1        1 LIG      0.079700
     72 H28         2.1520   -1.4800    4.4680 h1        1 LIG      0.062700
     73 H29         2.2470    0.9380    2.6630 h1        1 LIG      0.072200
     74 H30         2.1740   -0.7230    2.1250 h1        1 LIG      0.072200
     75 H31         4.2540    0.4250    3.7070 ho        1 LIG      0.405000
     76 H32        -0.0930   -1.8550    5.6040 h1        1 LIG      0.039700
     77 H33        -1.8580    0.3550    5.2440 ho        1 LIG      0.432000
     78 H34         0.0600    1.0360    6.4690 h1        1 LIG      0.107700
     79 H35         0.1340   -1.4100    7.9310 ho        1 LIG      0.404000
     80 H36         2.3040    0.4450    7.3050 h2        1 LIG      0.116700
     81 H37         1.8380   -1.9940    5.8920 ho        1 LIG      0.407000
@<TRIPOS>BOND
     1    1    2 2   
     2    2    3 1   
     3    2    4 1   
     4    4    5 1   
     5    5    6 1   
     6    5   14 1   
     7    6    7 1   
     8    6    8 1   
     9    7   17 1   
    10    8    9 1   
    11    8   10 1   
    12   10   11 1   
    13   10   12 1   
    14   12   13 1   
    15   14   15 1   
    16   14   16 1   
    17   16   17 1   
    18   17   18 1   
    19   17   21 1   
    20   18   19 1   
    21   18   20 1   
    22   21   22 1   
    23   22   23 1   
    24   22   29 1   
    25   23   24 1   
    26   23   28 1   
    27   24   25 1   
    28   24   26 1   
    29   25   31 1   
    30   26   27 1   
    31   29   30 1   
    32   29   31 1   
    33   31   32 1   
    34   32   33 1   
    35   33   34 1   
    36   33   38 1   
    37   34   35 1   
    38   34   36 1   
    39   35   42 1   
    40   36   37 1   
    41   38   39 1   
    42   38   40 1   
    43   40   41 1   
    44   40   42 1   
    45   42   43 1   
    46    3   44 1   
    47    3   45 1   
    48    3   46 1   
    49    4   47 1   
    50    5   48 1   
    51    6   49 1   
    52    8   50 1   
    53    9   51 1   
    54   10   52 1   
    55   11   53 1   
    56   12   54 1   
    57   12   55 1   
    58   13   56 1   
    59   14   57 1   
    60   15   58 1   
    61   16   59 1   
    62   16   60 1   
    63   22   61 1   
    64   23   62 1   
    65   24   63 1   
    66   26   64 1   
    67   26   65 1   
    68   27   66 1   
    69   28   67 1   
    70   29   68 1   
    71   30   69 1   
    72   31   70 1   
    73   33   71 1   
    74   34   72 1   
    75   36   73 1   
    76   36   74 1   
    77   37   75 1   
    78   38   76 1   
    79   39   77 1   
    80   40   78 1   
    81   41   79 1   
    82   42   80 1   
    83   43   81 1   
@<TRIPOS>SUBSTRUCTURE
     1 LIG         1 TEMP              0 ****  ****    0 ROOT
