@<TRIPOS>MOLECULE
GGL
   18    17     1     0     0
SMALL
bcc


@<TRIPOS>ATOM
      1 N           1.1990    1.8670   -0.1170 n4        1 GLU     -0.844600
      2 CA          1.1380    0.5150    0.4530 c3        1 GLU     -0.022500
      3 C           2.3640   -0.2600    0.0410 c         1 GLU      0.917600
      4 O           3.0100    0.0960   -0.9160 o         1 GLU     -0.804300
      5 CB         -0.1130   -0.2000   -0.0620 c3        1 GLU     -0.068400
      6 CG         -1.3600    0.5170    0.4610 c3        1 GLU     -0.202400
      7 CD         -2.5930   -0.1870   -0.0460 c         1 GLU      0.878600
      8 OE1        -2.4850   -1.1610   -0.7530 o         1 GLU     -0.858300
      9 OE2        -3.8110    0.2690    0.2870 o         1 GLU     -0.858300
     10 OXT         2.7370   -1.3450    0.7370 o         1 GLU     -0.804300
     11 H1          2.0330    2.3430    0.2260 hn        1 GLU      0.459800
     12 H2          0.3690    2.3910    0.1610 hn        1 GLU      0.459800
     13 H3          1.2370    1.8060   -1.1340 hn        1 GLU      0.459800
     14 HA          1.0980    0.5800    1.5200 hx        1 GLU      0.078700
     15 HB1        -0.1130   -1.2130    0.2830 hc        1 GLU      0.065200
     16 HB2        -0.1160   -0.1880   -1.1320 hc        1 GLU      0.065200
     17 HG1        -1.3600    1.5300    0.1160 hc        1 GLU      0.039700
     18 HG2        -1.3570    0.5050    1.5310 hc        1 GLU      0.039700
@<TRIPOS>BOND
     1    1    2 1   
     2    2    3 1   
     3    2    5 1   
     4    3    4 1   
     5    3   10 1   
     6    5    6 1   
     7    6    7 1   
     8    7    8 1   
     9    7    9 1   
    10    1   11 1   
    11    1   12 1   
    12    1   13 1   
    13    2   14 1   
    14    5   15 1   
    15    5   16 1   
    16    6   17 1   
    17    6   18 1   
@<TRIPOS>SUBSTRUCTURE
     1 GLU         1 TEMP              0 ****  ****    0 ROOT
