@<TRIPOS>MOLECULE
ITQ
   64    71     1     0     0
SMALL
bcc


@<TRIPOS>ATOM
      1 C          -3.5040   -2.7380    0.5410 C.3       1 LIG     -0.021200
      2 N          -2.0830    4.2390   -0.4940 N.c       1 LIG     -0.571100
      3 C1         -4.9520   -2.2850    0.7590 C.3       1 LIG     -0.077400
      4 N1          1.6440   -0.1440    0.6580 N.a       1 LIG     -0.101300
      5 C2         -5.3240   -1.2420   -0.2980 C.3       1 LIG     -0.079400
      6 N2         -1.2700   -1.4680    0.5520 N.a       1 LIG     -0.127400
      7 C3         -4.5640    0.0590   -0.0180 C.3       1 LIG     -0.031200
      8 N3          0.4210   -1.1600   -1.5760 N.4       1 LIG     -0.755000
      9 O           0.7730   -2.1850    1.5500 O.2       1 LIG     -0.393600
     10 C4         -3.1050   -0.2700    0.1770 C.c       1 LIG     -0.063400
     11 O1         -4.0070    3.0110   -0.5030 O.3       1 LIG     -0.445100
     12 C5         -2.0120    0.6240    0.1370 C.a       1 LIG      0.023200
     13 O2          3.2140   -1.4960   -1.0930 O.2       1 LIG     -0.428600
     14 C6         -1.8670    1.9990   -0.0830 C.a       1 LIG     -0.150600
     15 C7         -2.8020    3.1070   -0.3810 C.        1 LIG      0.685100
     16 C8         -0.8080    4.0220   -0.3100 C.d       1 LIG      0.509800
     17 C9         -0.5910    2.5930   -0.0400 C.a       1 LIG     -0.169900
     18 C10         0.5440    1.8120    0.2230 C.p       1 LIG      0.016000
     19 C11         1.9720    2.0810    0.3510 C.p       1 LIG     -0.068000
     20 C12         2.7070    3.2660    0.2570 C.a       1 LIG     -0.072000
     21 C13         4.0770    3.1670    0.4330 C.a       1 LIG     -0.125000
     22 C14         4.6940    1.9550    0.6880 C.a       1 LIG     -0.099000
     23 C15         3.9830    0.7700    0.7850 C.a       1 LIG     -0.132000
     24 C16         2.6010    0.8410    0.6150 C.a       1 LIG     -0.041200
     25 C17         0.3980    0.4240    0.4310 C.a       1 LIG     -0.069200
     26 C18        -0.8620   -0.1580    0.3860 C.a       1 LIG     -0.072200
     27 C19        -2.6280   -1.5110    0.4250 C.d       1 LIG     -0.080300
     28 C20         1.8640   -1.5700    0.9050 C.3       1 LIG      0.224500
     29 C21         2.2520   -2.2820   -0.3860 C.3       1 LIG      0.105100
     30 C22         1.0050   -2.4690   -1.2580 C.3       1 LIG      0.116500
     31 C23        -0.0060   -3.3090   -0.4700 C.3       1 LIG     -0.136400
     32 C24        -0.3680   -2.5870    0.8210 C.3       1 LIG      0.219800
     33 C25         3.0660   -1.6830    1.8450 C.3       1 LIG     -0.107100
     34 C26         4.1240   -2.2640   -1.8840 C.3       1 LIG      0.103700
     35 C27         1.0190   -0.6000   -2.7960 C.3       1 LIG      0.082100
     36 H          -3.4380   -3.3150   -0.3580 H         1 LIG      0.050700
     37 H1         -3.1820   -3.3410    1.3640 H         1 LIG      0.050700
     38 H2         -5.0480   -1.8550    1.7340 H         1 LIG      0.058200
     39 H3         -5.6060   -3.1270    0.6750 H         1 LIG      0.058200
     40 H4         -6.3770   -1.0560   -0.2610 H         1 LIG      0.055700
     41 H5         -5.0620   -1.6070   -1.2690 H         1 LIG      0.055700
     42 H6         -4.9510    0.5200    0.8670 H         1 LIG      0.081200
     43 H7         -4.6800    0.7350   -0.8390 H         1 LIG      0.081200
     44 H8          0.5890   -0.5220   -0.7980 H         1 LIG      0.474800
     45 H9         -0.5800   -1.2790   -1.7300 H         1 LIG      0.474800
     46 H10        -0.0690    4.7410   -0.3480 H         1 LIG      0.058800
     47 H11         2.2510    4.1720    0.0660 H         1 LIG      0.149000
     48 H12         4.6540    4.0210    0.3720 H         1 LIG      0.155000
     49 H13         5.7180    1.9330    0.8100 H         1 LIG      0.149000
     50 H14         4.4560   -0.1270    0.9750 H         1 LIG      0.146000
     51 H15         2.6740   -3.2380   -0.1550 H         1 LIG      0.099700
     52 H16         1.2630   -2.9610   -2.1730 H         1 LIG      0.106700
     53 H17         0.4250   -4.2610   -0.2380 H         1 LIG      0.096700
     54 H18        -0.8880   -3.4510   -1.0590 H         1 LIG      0.096700
     55 H19        -0.8870   -3.2840    1.4450 H         1 LIG      0.119700
     56 H20         2.8420   -1.1960    2.7710 H         1 LIG      0.074033
     57 H21         3.9170   -1.2170    1.3930 H         1 LIG      0.074033
     58 H22         3.2800   -2.7150    2.0280 H         1 LIG      0.074033
     59 H23         4.8080   -1.6070   -2.3790 H         1 LIG      0.058033
     60 H24         3.5770   -2.8250   -2.6130 H         1 LIG      0.058033
     61 H25         4.6680   -2.9350   -1.2520 H         1 LIG      0.058033
     62 H26         2.0710   -0.4690   -2.6500 H         1 LIG      0.105033
     63 H27         0.5690    0.3460   -3.0120 H         1 LIG      0.105033
     64 H28         0.8530   -1.2690   -3.6140 H         1 LIG      0.105033
@<TRIPOS>BOND
     1    1    3 1   
     2    1   27 1   
     3    2   15 1   
     4    2   16 2   
     5    3    5 1   
     6    4   24 1   
     7    4   25 1   
     8    4   28 1   
     9    5    7 1   
    10    6   26 1   
    11    6   27 1   
    12    6   32 1   
    13    7   10 1   
    14    8   30 1   
    15    8   35 1   
    16    9   28 1   
    17    9   32 1   
    18   10   12 1   
    19   10   27 2   
    20   11   15 2   
    21   12   14 ar  
    22   12   26 ar  
    23   13   29 1   
    24   13   34 1   
    25   14   15 1   
    26   14   17 ar  
    27   16   17 1   
    28   17   18 ar  
    29   18   19 1   
    30   18   25 ar  
    31   19   20 ar  
    32   19   24 ar  
    33   20   21 ar  
    34   21   22 ar  
    35   22   23 ar  
    36   23   24 ar  
    37   25   26 ar  
    38   28   29 1   
    39   28   33 1   
    40   29   30 1   
    41   30   31 1   
    42   31   32 1   
    43    1   36 1   
    44    1   37 1   
    45    3   38 1   
    46    3   39 1   
    47    5   40 1   
    48    5   41 1   
    49    7   42 1   
    50    7   43 1   
    51    8   44 1   
    52    8   45 1   
    53   16   46 1   
    54   20   47 1   
    55   21   48 1   
    56   22   49 1   
    57   23   50 1   
    58   29   51 1   
    59   30   52 1   
    60   31   53 1   
    61   31   54 1   
    62   32   55 1   
    63   33   56 1   
    64   33   57 1   
    65   33   58 1   
    66   34   59 1   
    67   34   60 1   
    68   34   61 1   
    69   35   62 1   
    70   35   63 1   
    71   35   64 1   
@<TRIPOS>SUBSTRUCTURE
     1 LIG         1 TEMP              0 ****  ****    0 ROOT
