@<TRIPOS>MOLECULE
0QZ
   14    13     1     0     0
SMALL
bcc


@<TRIPOS>ATOM
      1 N           2.6040   -0.4550   -0.0250 N.4       1 LIG     -0.842600
      2 C           1.2150   -0.6410   -0.4650 C.3       1 LIG      0.099800
      3 C1          0.2830    0.1850    0.4240 C.3       1 LIG     -0.053900
      4 C2         -1.1490   -0.1000    0.0520 C.        1 LIG      0.920600
      5 O          -1.8360    0.7760   -0.4180 O.3       1 LIG     -0.772800
      6 O1          0.5560    1.5760    0.2380 O.h       1 LIG     -0.664800
      7 O2         -1.6610   -1.3260    0.2420 O.3       1 LIG     -0.772800
      8 H           3.2250   -1.0060   -0.6180 H         1 LIG      0.444467
      9 H1          2.6980   -0.7620    0.9430 H         1 LIG      0.444467
     10 H2          2.8540    0.5310   -0.0950 H         1 LIG      0.444467
     11 H3          1.1170   -0.3190   -1.4810 H         1 LIG      0.113700
     12 H4          0.9530   -1.6760   -0.3910 H         1 LIG      0.113700
     13 H5          0.4440   -0.0760    1.4490 H         1 LIG      0.060700
     14 H6          0.4100    1.8130   -0.6910 H         1 LIG      0.465000
@<TRIPOS>BOND
     1    2    3 1   
     2    2    1 1   
     3    3    6 1   
     4    4    3 1   
     5    4    7 1   
     6    5    4 1   
     7    1    8 1   
     8    1    9 1   
     9    1   10 1   
    10    2   11 1   
    11    2   12 1   
    12    3   13 1   
    13    6   14 1   
@<TRIPOS>SUBSTRUCTURE
     1 LIG         1 TEMP              0 ****  ****    0 ROOT
