@<TRIPOS>MOLECULE
CS2
   24    23     1     0     0
SMALL
bcc


@<TRIPOS>ATOM
      1 C           1.6520   -0.5860   -0.2890 c3        1 LIG     -0.023900
      2 C1          0.4330    0.2120    0.1770 c3        1 LIG      0.121100
      3 O           3.1630    1.3530   -0.5180 o         1 LIG     -0.823300
      4 C2          2.9090    0.1680    0.0600 c         1 LIG      0.895600
      5 O1          3.6880   -0.2930    0.8600 o         1 LIG     -0.823300
      6 O2          1.6650   -1.8590    0.3600 oh        1 LIG     -0.654800
      7 O3          0.4200    1.4850   -0.4720 oh        1 LIG     -0.656800
      8 C3         -0.8440   -0.5540   -0.1780 c3        1 LIG      0.115100
      9 O4         -0.8520   -0.8430   -1.5770 oh        1 LIG     -0.608800
     10 C4         -2.0640    0.2980    0.1750 c3        1 LIG      0.080100
     11 O5         -2.0550    0.5870    1.5740 oh        1 LIG     -0.628800
     12 C5         -3.3410   -0.4680   -0.1800 c3        1 LIG      0.110400
     13 O6         -4.4760    0.3710    0.0400 oh        1 LIG     -0.619800
     14 H           1.6020   -0.7260   -1.3490 h1        1 LIG      0.052700
     15 H1          0.4830    0.3520    1.2370 h1        1 LIG      0.050700
     16 H2          1.7100   -1.7320    1.3210 ho        1 LIG      0.437000
     17 H3          0.3750    1.3580   -1.4330 ho        1 LIG      0.468000
     18 H4         -0.8770   -1.4690    0.3750 h1        1 LIG      0.078700
     19 H5         -0.8220   -0.0130   -2.0790 ho        1 LIG      0.421000
     20 H6         -2.0320    1.2130   -0.3780 h1        1 LIG      0.066700
     21 H7         -2.0840   -0.2430    2.0760 ho        1 LIG      0.437000
     22 H8         -3.4170   -1.3400    0.4360 h1        1 LIG      0.046200
     23 H9         -3.3070   -0.7600   -1.2090 h1        1 LIG      0.046200
     24 H10        -4.5060    0.6360    0.9730 ho        1 LIG      0.411000
@<TRIPOS>BOND
     1    1    6 1   
     2    1    4 1   
     3    1    2 1   
     4    2    8 1   
     5    2    7 1   
     6    3    4 1   
     7    4    5 1   
     8    8    9 1   
     9    8   10 1   
    10   10   12 1   
    11   10   11 1   
    12   12   13 1   
    13    1   14 1   
    14    2   15 1   
    15    6   16 1   
    16    7   17 1   
    17    8   18 1   
    18    9   19 1   
    19   10   20 1   
    20   11   21 1   
    21   12   22 1   
    22   12   23 1   
    23   13   24 1   
@<TRIPOS>SUBSTRUCTURE
     1 LIG         1 TEMP              0 ****  ****    0 ROOT
