@<TRIPOS>MOLECULE
FTY
   31    31     1     0     0
SMALL
bcc


@<TRIPOS>ATOM
      1 N           1.5590    0.3060    3.7070 n4        1 LIG     -0.835600
      2 CA          0.1100    0.3460    3.9460 c3        1 LIG     -0.073500
      3 C          -0.1720   -0.0110    5.3820 c         1 LIG      0.938600
      4 O           0.5660   -0.7610    5.9740 o         1 LIG     -0.753300
      5 OXT        -1.2450    0.5030    6.0030 o         1 LIG     -0.753300
      6 C1         -0.5850   -0.6560    3.0230 c3        1 LIG     -0.056100
      7 C2         -0.3030   -0.2980    1.5870 ca        1 LIG     -0.081300
      8 C3          0.8010   -0.8280    0.9470 ca        1 LIG     -0.146500
      9 C4         -1.1510    0.5560    0.9080 ca        1 LIG     -0.146500
     10 C5          1.0610   -0.5000   -0.3690 ca        1 LIG     -0.069000
     11 C6         -0.8890    0.8870   -0.4080 ca        1 LIG     -0.069000
     12 C7          0.2150    0.3580   -1.0470 ca        1 LIG     -0.177300
     13 C8          0.4990    0.7160   -2.4830 c3        1 LIG      0.284700
     14 F           0.0300    2.0090   -2.7420 f         1 LIG     -0.219300
     15 F1          1.8780    0.6650   -2.7130 f         1 LIG     -0.219300
     16 P          -0.3440   -0.4660   -3.5830 p5        1 LIG      1.505300
     17 O1          0.0160   -0.1760   -4.9890 o         1 LIG     -0.814300
     18 O2          0.1120   -1.9650   -3.2100 oh        1 LIG     -0.762400
     19 O3         -1.9370   -0.3290   -3.3980 oh        1 LIG     -0.762400
     20 H1          2.0240    0.9740    4.3220 hn        1 LIG      0.445467
     21 H2          1.7500    0.5490    2.7350 hn        1 LIG      0.445467
     22 H3          1.9090   -0.6330    3.8980 hn        1 LIG      0.445467
     23 HA         -0.2590    1.3300    3.7460 hx        1 LIG      0.090700
     24 H          -1.6400   -0.6280    3.1970 hc        1 LIG      0.097700
     25 H4         -0.2160   -1.6400    3.2240 hc        1 LIG      0.097700
     26 H5          1.4320   -1.4690    1.4530 ha        1 LIG      0.145500
     27 H6         -1.9800    0.9470    1.3830 ha        1 LIG      0.145500
     28 H7          1.8860   -0.8950   -0.8460 ha        1 LIG      0.154000
     29 H8         -1.5190    1.5300   -0.9130 ha        1 LIG      0.154000
     30 H9          1.0720   -2.0480   -3.3210 ho        1 LIG      0.493500
     31 H10        -2.2120    0.5740   -3.6230 ho        1 LIG      0.493500
@<TRIPOS>BOND
     1    1    2 1   
     2    2    3 1   
     3    2    6 1   
     4    3    4 1   
     5    3    5 1   
     6    6    7 1   
     7    7    8 ar  
     8    7    9 ar  
     9    8   10 ar  
    10    9   11 ar  
    11   10   12 ar  
    12   11   12 ar  
    13   12   13 1   
    14   13   14 1   
    15   13   15 1   
    16   13   16 1   
    17   16   17 2   
    18   16   18 1   
    19   16   19 1   
    20    1   20 1   
    21    1   21 1   
    22    1   22 1   
    23    2   23 1   
    24    6   24 1   
    25    6   25 1   
    26    8   26 1   
    27    9   27 1   
    28   10   28 1   
    29   11   29 1   
    30   18   30 1   
    31   19   31 1   
@<TRIPOS>SUBSTRUCTURE
     1 LIG         1 TEMP              0 ****  ****    0 ROOT
