@<TRIPOS>MOLECULE
4FC
   24    25     1     0     0
SMALL
bcc


@<TRIPOS>ATOM
      1 C          -3.5270    1.1060    0.4920 ca        1 LIG     -0.167000
      2 C1         -4.2240    0.0160   -0.0040 ca        1 LIG      0.091900
      3 C2         -3.5400   -1.0830   -0.4970 ca        1 LIG     -0.167000
      4 C3         -2.1610   -1.0950   -0.5020 ca        1 LIG     -0.111000
      5 C4         -1.4550   -0.0030    0.0020 cp        1 LIG      0.000000
      6 C5         -2.1470    1.1010    0.4970 ca        1 LIG     -0.111000
      7 C6          0.7160   -1.1840    0.3270 ca        1 LIG     -0.140000
      8 C7          0.0280   -0.0140    0.0040 cp        1 LIG     -0.095000
      9 C8          0.7330    1.1470   -0.3160 ca        1 LIG     -0.140000
     10 C9          2.1100    1.1400   -0.3090 ca        1 LIG     -0.114000
     11 C10         2.8000   -0.0330    0.0080 ca        1 LIG     -0.107600
     12 C11         2.0920   -1.1950    0.3290 ca        1 LIG     -0.114000
     13 F          -5.5750    0.0260   -0.0070 f         1 LIG     -0.158900
     14 C12         4.2760   -0.0440    0.0110 c         1 LIG      0.906200
     15 O           4.9580    1.0760   -0.2990 o         1 LIG     -0.827300
     16 O1          4.8760   -1.0620    0.2910 o         1 LIG     -0.827300
     17 H          -4.0410    1.9230    0.8580 ha        1 LIG      0.135000
     18 H1         -4.0630   -1.8940   -0.8610 ha        1 LIG      0.135000
     19 H2         -1.6530   -1.9110   -0.8780 ha        1 LIG      0.143000
     20 H3         -1.6280    1.9130    0.8670 ha        1 LIG      0.143000
     21 H4          0.1930   -2.0410    0.5650 ha        1 LIG      0.109000
     22 H5          0.2230    2.0110   -0.5580 ha        1 LIG      0.109000
     23 H6          2.6320    2.0000   -0.5380 ha        1 LIG      0.154000
     24 H7          2.6010   -2.0610    0.5670 ha        1 LIG      0.154000
@<TRIPOS>BOND
     1    1    2 ar  
     2    1    6 ar  
     3    2    3 ar  
     4    2   13 1   
     5    3    4 ar  
     6    4    5 ar  
     7    5    6 ar  
     8    5    8 1   
     9    7    8 ar  
    10    7   12 ar  
    11    8    9 ar  
    12    9   10 ar  
    13   10   11 ar  
    14   11   12 ar  
    15   11   14 1   
    16   14   15 1   
    17   14   16 1   
    18    1   17 1   
    19    3   18 1   
    20    4   19 1   
    21    6   20 1   
    22    7   21 1   
    23    9   22 1   
    24   10   23 1   
    25   12   24 1   
@<TRIPOS>SUBSTRUCTURE
     1 LIG         1 TEMP              0 ****  ****    0 ROOT
