@<TRIPOS>MOLECULE
FA1
   21    21     1     0     0
SMALL
bcc


@<TRIPOS>ATOM
      1 C           1.0240    0.3590    0.0190 C.3       1 LIG     -0.126400
      2 C1          0.8160   -0.1020    1.4670 C.3       1 LIG      0.106100
      3 O           1.8520    0.4290    2.2950 O.h       1 LIG     -0.606800
      4 C2         -0.5420    0.4060    1.9520 C.3       1 LIG      0.150300
      5 O1         -0.8680   -0.2100    3.1990 O.h       1 LIG     -0.603800
      6 C3         -1.6050    0.0800    0.9420 C.2       1 LIG     -0.271200
      7 C4         -1.3650   -0.2520   -0.2840 C.2       1 LIG     -0.112200
      8 C5          0.0190    0.2550   -2.2430 C.        1 LIG      0.948600
      9 O2         -0.2830    1.5540   -2.3950 O.3       1 LIG     -0.814800
     10 O3          0.3720   -1.7430   -0.9710 O.h       1 LIG     -0.566800
     11 O4          0.2990   -0.4150   -3.2080 O.3       1 LIG     -0.814800
     12 C6          0.0120   -0.3640   -0.8700 C.3       1 LIG      0.029000
     13 H           2.0180    0.1190   -0.2970 H         1 LIG      0.071700
     14 H1          0.8850    1.4170   -0.0520 H         1 LIG      0.071700
     15 H2          0.8450   -1.1700    1.5170 H         1 LIG      0.054700
     16 H3          1.8330    1.3980    2.2550 H         1 LIG      0.396000
     17 H4         -0.4900    1.4670    2.0780 H         1 LIG      0.071700
     18 H5         -0.9140   -1.1720    3.0820 H         1 LIG      0.390000
     19 H6         -2.5900    0.1240    1.2460 H         1 LIG      0.116000
     20 H7         -2.1700   -0.4520   -0.8980 H         1 LIG      0.155000
     21 H8          0.3680   -2.1440   -0.0880 H         1 LIG      0.358000
@<TRIPOS>BOND
     1    1    2 1   
     2    1   12 1   
     3    2    3 1   
     4    2    4 1   
     5    4    5 1   
     6    4    6 1   
     7    6    7 2   
     8    7   12 1   
     9    8    9 1   
    10    8   11 1   
    11    8   12 1   
    12   10   12 1   
    13    1   13 1   
    14    1   14 1   
    15    2   15 1   
    16    3   16 1   
    17    4   17 1   
    18    5   18 1   
    19    6   19 1   
    20    7   20 1   
    21   10   21 1   
@<TRIPOS>SUBSTRUCTURE
     1 LIG         1 TEMP              0 ****  ****    0 ROOT
