@<TRIPOS>MOLECULE
QUO
   58    61     1     0     0
SMALL
bcc


@<TRIPOS>ATOM
      1 P          -2.1990   -0.7260    4.8930 p5        1 LIG      1.349900
      2 O          -3.0900    0.0970    4.0450 o         1 LIG     -0.721500
      3 O1         -2.8800   -2.1620    5.1500 o         1 LIG     -0.721500
      4 O2         -1.9630    0.0150    6.3020 o         1 LIG     -0.721500
      5 O3         -0.7860   -0.9280    4.1490 os        1 LIG     -0.570200
      6 C          -0.2340    0.3740    3.9500 c3        1 LIG      0.190400
      7 C1          1.1170    0.2530    3.2440 c3        1 LIG      0.060100
      8 O4          0.9530   -0.3600    1.9470 os        1 LIG     -0.392600
      9 C2          2.1290    0.0140    1.1970 c3        1 LIG      0.211800
     10 N           1.8800   -0.1130   -0.2400 na        1 LIG     -0.059100
     11 C3          2.8370   -0.3540   -1.1810 cc        1 LIG      0.154100
     12 N1          4.1650   -0.5340   -1.1240 nc        1 LIG     -0.642100
     13 C4          4.8690   -0.7560   -2.2110 cd        1 LIG      0.620800
     14 N2          6.2250   -0.9340   -2.0990 nh        1 LIG     -0.871800
     15 N3          4.2960   -0.8110   -3.4470 n         1 LIG     -0.501400
     16 C5          2.9610   -0.6460   -3.5860 c         1 LIG      0.748100
     17 O5          2.4360   -0.6970   -4.6850 o         1 LIG     -0.647500
     18 C6          2.1940   -0.4060   -2.4260 cd        1 LIG     -0.246600
     19 C7          0.7740   -0.1770   -2.1640 cd        1 LIG     -0.112300
     20 C8          0.6480   -0.0080   -0.8370 cc        1 LIG     -0.115300
     21 C9         -0.3340   -0.1370   -3.1840 c3        1 LIG      0.221100
     22 N4         -1.6130    0.1180   -2.5080 n4        1 LIG     -1.020000
     23 C10        -2.6440    0.1440   -3.5540 c3        1 LIG      0.146500
     24 C11        -3.9930   -0.3190   -2.9750 c3        1 LIG      0.071100
     25 O6         -4.4690   -1.4590   -3.6930 oh        1 LIG     -0.606800
     26 C12        -4.9730    0.8600   -3.1450 c3        1 LIG      0.083100
     27 O7         -6.2780    0.3840   -3.4840 oh        1 LIG     -0.623800
     28 C13        -4.3770    1.6850   -4.3120 c3        1 LIG     -0.079400
     29 C14        -2.8530    1.5880   -4.0550 c3        1 LIG     -0.073400
     30 C15         2.3830    1.4920    1.5690 c3        1 LIG      0.087100
     31 O8          3.7840    1.7560    1.6720 oh        1 LIG     -0.576800
     32 C16         1.6990    1.6530    2.9470 c3        1 LIG      0.081100
     33 O9          2.6570    2.0180    3.9430 oh        1 LIG     -0.600800
     34 H          -0.1000    0.8530    4.8970 h1        1 LIG      0.034200
     35 H1         -0.9000    0.9550    3.3480 h1        1 LIG      0.034200
     36 H2          1.7510   -0.3210    3.8870 h1        1 LIG      0.127700
     37 H3          2.9680   -0.6110    1.4230 h2        1 LIG      0.092700
     38 H4          6.6550   -0.8970   -1.2140 hn        1 LIG      0.392800
     39 H5          6.7680   -1.0980   -2.9040 hn        1 LIG      0.392800
     40 H6          4.8560   -0.9710   -4.2410 hn        1 LIG      0.326500
     41 H7         -0.2390    0.1730   -0.3420 h4        1 LIG      0.234000
     42 H8         -0.3820   -1.0760   -3.6960 hx        1 LIG      0.065200
     43 H9         -0.1410    0.6440   -3.8890 hx        1 LIG      0.065200
     44 H10        -1.5820    1.0150   -2.0230 hn        1 LIG      0.401300
     45 H11        -1.8120   -0.6030   -1.8140 hn        1 LIG      0.401300
     46 H12        -2.3220   -0.4980   -4.3470 hx        1 LIG      0.050700
     47 H13        -3.8970   -0.5970   -1.9460 h1        1 LIG      0.105700
     48 H14        -4.5650   -1.2330   -4.6310 ho        1 LIG      0.400000
     49 H15        -5.0820    1.4340   -2.2490 h1        1 LIG      0.141700
     50 H16        -6.2280   -0.1450   -4.2950 ho        1 LIG      0.410000
     51 H17        -4.7100    2.7010   -4.2760 hc        1 LIG      0.046700
     52 H18        -4.6680    1.3270   -5.2770 hc        1 LIG      0.046700
     53 H19        -2.3040    1.7600   -4.9570 hc        1 LIG      0.044200
     54 H20        -2.5090    2.3190   -3.3530 hc        1 LIG      0.044200
     55 H21         2.0030    2.1710    0.8350 h1        1 LIG      0.101700
     56 H22         4.1780    1.1620    2.3300 ho        1 LIG      0.408000
     57 H23         0.9520    2.4190    2.9490 h1        1 LIG      0.097700
     58 H24         3.3580    1.3490    3.9780 ho        1 LIG      0.411000
@<TRIPOS>BOND
     1    1    2 1   
     2    1    3 1   
     3    1    4 1   
     4    1    5 1   
     5    5    6 1   
     6    6    7 1   
     7    7    8 1   
     8    7   32 1   
     9    8    9 1   
    10    9   10 1   
    11    9   30 1   
    12   10   11 ar  
    13   10   20 ar  
    14   11   12 1   
    15   11   18 ar  
    16   12   13 2   
    17   13   14 1   
    18   13   15 1   
    19   15   16 1   
    20   16   17 2   
    21   16   18 1   
    22   18   19 ar  
    23   19   20 ar  
    24   19   21 1   
    25   21   22 1   
    26   22   23 1   
    27   23   24 1   
    28   23   29 1   
    29   24   25 1   
    30   24   26 1   
    31   26   27 1   
    32   26   28 1   
    33   28   29 1   
    34   30   31 1   
    35   30   32 1   
    36   32   33 1   
    37    6   34 1   
    38    6   35 1   
    39    7   36 1   
    40    9   37 1   
    41   14   38 1   
    42   14   39 1   
    43   15   40 1   
    44   20   41 1   
    45   21   42 1   
    46   21   43 1   
    47   22   44 1   
    48   22   45 1   
    49   23   46 1   
    50   24   47 1   
    51   25   48 1   
    52   26   49 1   
    53   27   50 1   
    54   28   51 1   
    55   28   52 1   
    56   29   53 1   
    57   29   54 1   
    58   30   55 1   
    59   31   56 1   
    60   32   57 1   
    61   33   58 1   
@<TRIPOS>SUBSTRUCTURE
     1 LIG         1 TEMP              0 ****  ****    0 ROOT
