@<TRIPOS>MOLECULE
FYA
   58    61     1     0     0
SMALL
bcc


@<TRIPOS>ATOM
      1 C           0.5890   -0.5960   -4.1470 c3        1 LIG      0.171400
      2 C1         -0.2380    0.0090   -5.2820 c3        1 LIG      0.134500
      3 N           0.2500    1.3620   -5.5760 n4        1 LIG     -1.127600
      4 C2         -0.1050   -0.8630   -6.5320 c3        1 LIG     -0.074100
      5 C3         -0.9200   -0.2660   -7.6500 ca        1 LIG     -0.091300
      6 C4         -0.3460    0.6490   -8.5110 ca        1 LIG     -0.130000
      7 C5         -2.2410   -0.6400   -7.8180 ca        1 LIG     -0.130000
      8 C6         -1.0940    1.1970   -9.5370 ca        1 LIG     -0.125000
      9 C7         -2.9900   -0.0890   -8.8410 ca        1 LIG     -0.125000
     10 C8         -2.4160    0.8270   -9.7020 ca        1 LIG     -0.127000
     11 P           1.3560   -0.4740   -1.8320 p5        1 LIG      1.503800
     12 O           0.8520   -1.8420   -1.5740 o         1 LIG     -0.614500
     13 O1          2.8900   -0.5500   -2.3160 o         1 LIG     -0.614500
     14 O2          0.4650    0.2180   -2.9800 os        1 LIG     -0.587200
     15 O3          1.2620    0.3960   -0.4810 os        1 LIG     -0.557200
     16 C9          2.0700   -0.2660    0.4940 c3        1 LIG      0.154400
     17 C10         2.0240    0.5130    1.8090 c3        1 LIG      0.071100
     18 O4          0.6750    0.5540    2.3060 os        1 LIG     -0.410600
     19 C11         2.8860   -0.1970    2.8700 c3        1 LIG      0.075100
     20 O5          3.9350    0.6580    3.3280 oh        1 LIG     -0.578800
     21 C12         1.8910   -0.4990    4.0220 c3        1 LIG      0.087100
     22 O6          2.4960   -0.2590    5.2940 oh        1 LIG     -0.568800
     23 C13         0.7570    0.5200    3.7470 c3        1 LIG      0.207800
     24 N1         -0.5070    0.0580    4.3250 na        1 LIG     -0.277000
     25 C14        -1.4030   -0.7830    3.7350 cc        1 LIG      0.398700
     26 N2         -2.4150   -0.9820    4.5290 nd        1 LIG     -0.538100
     27 C15        -2.2330   -0.2840    5.6750 ca        1 LIG     -0.237200
     28 C16        -2.9710   -0.1190    6.8590 ca        1 LIG      0.762200
     29 N3         -4.1850   -0.7600    7.0320 nh        1 LIG     -0.958500
     30 N4         -2.4760    0.6660    7.8100 nb        1 LIG     -0.795000
     31 C17        -1.3180    1.2820    7.6540 ca        1 LIG      0.689900
     32 N5         -0.5930    1.1560    6.5630 nb        1 LIG     -0.732000
     33 C18        -1.0040    0.3870    5.5600 ca        1 LIG      0.476800
     34 H           1.6170   -0.6430   -4.4410 h1        1 LIG      0.063200
     35 H1          0.2330   -1.5820   -3.9330 h1        1 LIG      0.063200
     36 H2         -1.2660    0.0560   -4.9880 hx        1 LIG      0.080700
     37 H3          1.2300    1.3170   -5.8570 hn        1 LIG      0.407467
     38 H4          0.1620    1.9440   -4.7430 hn        1 LIG      0.407467
     39 H5         -0.3020    1.7660   -6.3330 hn        1 LIG      0.407467
     40 H6         -0.4610   -1.8490   -6.3180 hc        1 LIG      0.057700
     41 H7          0.9230   -0.9110   -6.8260 hc        1 LIG      0.057700
     42 H8          0.6410    0.9240   -8.3890 ha        1 LIG      0.131500
     43 H9         -2.6670   -1.3300   -7.1800 ha        1 LIG      0.131500
     44 H10        -0.6660    1.8820  -10.1790 ha        1 LIG      0.135000
     45 H11        -3.9780   -0.3620   -8.9620 ha        1 LIG      0.135000
     46 H12        -2.9740    1.2350  -10.4680 ha        1 LIG      0.135000
     47 H13         3.0800   -0.3170    0.1450 h1        1 LIG      0.069200
     48 H14         1.6970   -1.2560    0.6530 h1        1 LIG      0.069200
     49 H15         2.3900    1.5020    1.6260 h1        1 LIG      0.107700
     50 H16         3.3610   -1.0770    2.4890 h1        1 LIG      0.132700
     51 H17         3.5530    1.4750    3.6850 ho        1 LIG      0.408000
     52 H18         1.5600   -1.5160    4.0510 h1        1 LIG      0.099700
     53 H19         2.8200    0.6550    5.3310 ho        1 LIG      0.417000
     54 H20         0.9470    1.4810    4.1780 h2        1 LIG      0.129700
     55 H21        -1.2950   -1.2000    2.7970 h5        1 LIG      0.071800
     56 H22        -4.5420   -1.3390    6.3200 hn        1 LIG      0.447800
     57 H23        -4.6920   -0.6370    7.8670 hn        1 LIG      0.447800
     58 H24        -0.9690    1.8840    8.4160 h5        1 LIG      0.053100
@<TRIPOS>BOND
     1    1    2 1   
     2    1   14 1   
     3    2    3 1   
     4    2    4 1   
     5    4    5 1   
     6    5    6 ar  
     7    5    7 ar  
     8    6    8 ar  
     9    7    9 ar  
    10    8   10 ar  
    11    9   10 ar  
    12   11   12 1   
    13   11   13 1   
    14   11   14 1   
    15   11   15 1   
    16   15   16 1   
    17   16   17 1   
    18   17   18 1   
    19   17   19 1   
    20   18   23 1   
    21   19   20 1   
    22   19   21 1   
    23   21   22 1   
    24   21   23 1   
    25   23   24 1   
    26   24   25 1   
    27   24   33 1   
    28   25   26 2   
    29   26   27 1   
    30   27   28 ar  
    31   27   33 ar  
    32   28   29 1   
    33   28   30 ar  
    34   30   31 ar  
    35   31   32 ar  
    36   32   33 ar  
    37    1   34 1   
    38    1   35 1   
    39    2   36 1   
    40    3   37 1   
    41    3   38 1   
    42    3   39 1   
    43    4   40 1   
    44    4   41 1   
    45    6   42 1   
    46    7   43 1   
    47    8   44 1   
    48    9   45 1   
    49   10   46 1   
    50   16   47 1   
    51   16   48 1   
    52   17   49 1   
    53   19   50 1   
    54   20   51 1   
    55   21   52 1   
    56   22   53 1   
    57   23   54 1   
    58   25   55 1   
    59   29   56 1   
    60   29   57 1   
    61   31   58 1   
@<TRIPOS>SUBSTRUCTURE
     1 LIG         1 TEMP              0 ****  ****    0 ROOT
