@<TRIPOS>MOLECULE
NCY
   17    16     1     0     0
SMALL
bcc


@<TRIPOS>ATOM
      1 N           3.0670   -1.3860   -0.5170 N.4       1 CYS     -0.752000
      2 CA          1.6650   -1.1640   -0.7660 C.3       1 CYS     -0.082500
      3 CB          1.0760   -0.1070    0.1720 C.3       1 CYS      0.008700
      4 SG         -0.7350    0.0630    0.0430 S.h       1 CYS     -0.394900
      5 C           3.5810   -2.5050   -1.3050 C.3       0 UNK      0.086100
      6 C           1.3900   -0.8570   -2.2290 C.        1 CYS      0.936600
      7 O           1.7880    0.1520   -2.7990 O.3       1 CYS     -0.759300
      8 OXT         0.6440   -1.8050   -2.8440 O.3       1 CYS     -0.759300
      9 H1          3.1990   -1.5900    0.4740 H         1 CYS      0.457800
     10 H2          3.5770   -0.5440   -0.7860 H         1 CYS      0.457800
     11 HA          1.1590   -2.0810   -0.5460 H         1 CYS      0.105700
     12 HB1         1.5210    0.8380   -0.0620 H         1 CYS      0.075700
     13 HB2         1.2890   -0.4230    1.1720 H         1 CYS      0.075700
     14 HG         -1.0640    0.4650   -1.2140 H         1 CYS      0.282800
     15 H           3.0580   -3.4000   -1.0370 H         0 UNK      0.087367
     16 H3          4.6250   -2.6300   -1.1080 H         0 UNK      0.087367
     17 H4          3.4360   -2.3050   -2.3460 H         0 UNK      0.087367
@<TRIPOS>BOND
     1    1    2 1   
     2    1    5 1   
     3    2    3 1   
     4    2    6 1   
     5    3    4 1   
     6    6    7 1   
     7    6    8 1   
     8    1    9 1   
     9    1   10 1   
    10    2   11 1   
    11    3   12 1   
    12    3   13 1   
    13    4   14 1   
    14    5   15 1   
    15    5   16 1   
    16    5   17 1   
@<TRIPOS>SUBSTRUCTURE
     1 CYS         1 TEMP              0 ****  ****    0 ROOT
