@<TRIPOS>MOLECULE
LIZ
   92    93     1     0     0
SMALL
bcc


@<TRIPOS>ATOM
      1 N           1.2180    1.5450   -0.8770 N.4       1 LIG     -0.653400
      2 N1          5.1370   -1.3420   -0.1860 N.4       1 LIG     -0.652400
      3 C           1.3760    0.3580   -1.7280 C.3       1 LIG     -0.061200
      4 C1          3.2330   -0.5140    3.2620 C.        1 LIG      0.925600
      5 C2          4.1140    0.2460    2.3040 C.3       1 LIG     -0.073200
      6 C3          6.6330   -2.4950   -1.7140 C.        1 LIG      0.925100
      7 C4          6.3210   -2.2070   -0.2680 C.3       1 LIG     -0.075200
      8 C5          4.2300   -1.7910    0.8790 C.3       1 LIG     -0.075200
      9 C6          4.2720    0.9430   -0.0090 C.3       1 LIG      0.113500
     10 C7          4.6740    2.4050    0.1930 C.3       1 LIG     -0.098400
     11 C8          6.8680    1.9550   -0.9140 C.3       1 LIG     -0.082400
     12 C9         -1.9770    0.2080    0.9980 C.a       1 LIG     -0.111500
     13 C10        -3.1410   -0.2770    0.4360 C.a       1 LIG     -0.099500
     14 C11        -3.7400    0.4050   -0.6160 C.a       1 LIG      0.032600
     15 C12        -2.0010    2.0540   -0.5310 C.a       1 LIG     -0.111500
     16 C13        -6.0430   -0.1680   -0.4490 C.        1 LIG      0.587400
     17 C14        -8.4070   -0.7030   -0.2080 C.3       1 LIG      0.010400
     18 O           5.8730   -2.1310   -2.5800 O.3       1 LIG     -0.794050
     19 O1          7.7560   -3.1550   -2.0400 O.3       1 LIG     -0.794050
     20 C15         3.8070   -3.2130    0.6130 C.        1 LIG      0.925100
     21 O2          2.8960   -3.8010    1.4030 O.3       1 LIG     -0.794050
     22 O3          4.2900   -3.8230   -0.3120 O.3       1 LIG     -0.794050
     23 C16         5.5230    0.0620    0.0090 C.3       1 LIG      0.106500
     24 C17         6.4660    0.4920   -1.1170 C.3       1 LIG     -0.090400
     25 C18         5.6170    2.8350   -0.9320 C.3       1 LIG     -0.084400
     26 N2          3.3670    0.5300    1.0710 N.4       1 LIG     -0.670400
     27 O4          3.6710   -0.7940    4.4990 O.3       1 LIG     -0.783300
     28 O5          2.1310   -0.8710    2.9160 O.3       1 LIG     -0.783300
     29 C19         2.3290    1.5430    1.3050 C.3       1 LIG      0.075800
     30 C20         1.0640    1.1640    0.5340 C.3       1 LIG      0.131500
     31 C21         0.0760   -0.4020   -1.7760 C.        1 LIG      0.918600
     32 O6          0.0080   -1.5740   -2.4270 O.3       1 LIG     -0.796050
     33 O7         -0.9050    0.0430   -1.2300 O.3       1 LIG     -0.796050
     34 C22         2.3430    2.4720   -1.0520 C.3       1 LIG     -0.061200
     35 C23         2.0700    3.7430   -0.2900 C.        1 LIG      0.918600
     36 O8          1.0210    3.8860    0.2920 O.3       1 LIG     -0.796050
     37 O9          2.9930    4.7180   -0.2570 O.3       1 LIG     -0.796050
     38 C24        -0.1370    1.9000    1.1320 C.3       1 LIG     -0.069100
     39 C25        -1.4080    1.3730    0.5150 C.a       1 LIG     -0.105300
     40 C26        -3.1650    1.5740   -1.0980 C.a       1 LIG     -0.099500
     41 N3         -4.9190   -0.0850   -1.1880 N.        1 LIG     -0.421100
     42 S          -5.9980    0.2050    1.2220 S.        1 LIG     -0.610400
     43 N4         -7.2010   -0.5460   -1.0240 N.        1 LIG     -0.506900
     44 C27        -8.1560   -1.7530    0.8770 C.3       1 LIG      0.103400
     45 O10        -7.6860   -2.9590    0.2720 O.h       1 LIG     -0.590133
     46 C28        -8.7570    0.6340    0.4480 C.3       1 LIG      0.103400
     47 O11        -9.0580    1.5970   -0.5640 O.h       1 LIG     -0.590133
     48 C29        -9.5690   -1.1550   -1.0950 C.3       1 LIG      0.103400
     49 O12       -10.7450   -1.3090   -0.2990 O.h       1 LIG     -0.590133
     50 H           0.3670    2.0270   -1.1670 H         1 LIG      0.494800
     51 H1          4.6380   -1.4100   -1.0730 H         1 LIG      0.491800
     52 H2          2.1420   -0.2710   -1.3250 H         1 LIG      0.079450
     53 H3          1.6480    0.6620   -2.7170 H         1 LIG      0.079450
     54 H4          4.9770   -0.3420    2.0710 H         1 LIG      0.093200
     55 H5          4.4200    1.1670    2.7550 H         1 LIG      0.093200
     56 H6          6.1280   -3.1260    0.2450 H         1 LIG      0.084450
     57 H7          7.1550   -1.7140    0.1860 H         1 LIG      0.084450
     58 H8          3.3660   -1.1600    0.9010 H         1 LIG      0.084450
     59 H9          4.7340   -1.7390    1.8220 H         1 LIG      0.084450
     60 H10         3.7750    0.8370   -0.9510 H         1 LIG      0.087700
     61 H11         5.1710    2.5110    1.1350 H         1 LIG      0.075700
     62 H12         3.7990    3.0210    0.1790 H         1 LIG      0.075700
     63 H13         7.5270    2.2560   -1.7010 H         1 LIG      0.056200
     64 H14         7.3650    2.0610    0.0280 H         1 LIG      0.056200
     65 H15        -1.5310   -0.2990    1.7790 H         1 LIG      0.167500
     66 H16        -3.5660   -1.1450    0.7970 H         1 LIG      0.143500
     67 H17        -1.5730    2.9220   -0.8890 H         1 LIG      0.167500
     68 H18         6.0200    0.1680    0.9510 H         1 LIG      0.165700
     69 H19         7.3410   -0.1240   -1.1040 H         1 LIG      0.078200
     70 H20         5.9690    0.3860   -2.0590 H         1 LIG      0.078200
     71 H21         5.8980    3.8580   -0.7900 H         1 LIG      0.054200
     72 H22         5.1200    2.7290   -1.8740 H         1 LIG      0.054200
     73 H23         2.9040   -0.3310    0.7800 H         1 LIG      0.472800
     74 H24         2.6790    2.4970    0.9690 H         1 LIG      0.146200
     75 H25         2.1080    1.5920    2.3510 H         1 LIG      0.146200
     76 H26         0.9070    0.1080    0.6040 H         1 LIG      0.089700
     77 H27         2.4610    2.6980   -2.0910 H         1 LIG      0.079450
     78 H28         3.2390    2.0190   -0.6810 H         1 LIG      0.079450
     79 H29        -0.0500    2.9470    0.9300 H         1 LIG      0.104700
     80 H30        -0.1620    1.7410    2.1900 H         1 LIG      0.104700
     81 H31        -3.6070    2.0830   -1.8790 H         1 LIG      0.143500
     82 H32        -4.9280   -0.3690   -2.1310 H         1 LIG      0.325500
     83 H33        -7.2370   -0.7170   -1.9930 H         1 LIG      0.288500
     84 H34        -9.0680   -1.9490    1.4020 H         1 LIG      0.072700
     85 H35        -7.4210   -1.3880    1.5640 H         1 LIG      0.072700
     86 H36        -8.3520   -3.2890   -0.3500 H         1 LIG      0.395000
     87 H37        -7.9250    0.9750    1.0290 H         1 LIG      0.072700
     88 H38        -9.6080    0.5070    1.0840 H         1 LIG      0.072700
     89 H39        -8.2870    1.7120   -1.1410 H         1 LIG      0.395000
     90 H40        -9.3240   -2.0900   -1.5540 H         1 LIG      0.072700
     91 H41        -9.7450   -0.4200   -1.8530 H         1 LIG      0.072700
     92 H42       -10.5850   -1.9750    0.3880 H         1 LIG      0.395000
@<TRIPOS>BOND
     1    1    3 1   
     2    1   30 1   
     3    1   34 1   
     4    2    7 1   
     5    2    8 1   
     6    2   23 1   
     7    3   31 1   
     8    4    5 1   
     9    4   27 1   
    10    4   28 1   
    11    5   26 1   
    12    6    7 1   
    13    6   18 1   
    14    6   19 1   
    15    8   20 1   
    16    9   10 1   
    17    9   23 1   
    18    9   26 1   
    19   10   25 1   
    20   11   24 1   
    21   11   25 1   
    22   12   13 ar  
    23   12   39 ar  
    24   13   14 ar  
    25   14   40 ar  
    26   14   41 1   
    27   15   39 ar  
    28   15   40 ar  
    29   16   41 1   
    30   16   42 2   
    31   16   43 1   
    32   17   43 1   
    33   17   44 1   
    34   17   46 1   
    35   17   48 1   
    36   20   21 1   
    37   20   22 1   
    38   23   24 1   
    39   26   29 1   
    40   29   30 1   
    41   30   38 1   
    42   31   32 1   
    43   31   33 1   
    44   34   35 1   
    45   35   36 1   
    46   35   37 1   
    47   38   39 1   
    48   44   45 1   
    49   46   47 1   
    50   48   49 1   
    51    1   50 1   
    52    2   51 1   
    53    3   52 1   
    54    3   53 1   
    55    5   54 1   
    56    5   55 1   
    57    7   56 1   
    58    7   57 1   
    59    8   58 1   
    60    8   59 1   
    61    9   60 1   
    62   10   61 1   
    63   10   62 1   
    64   11   63 1   
    65   11   64 1   
    66   12   65 1   
    67   13   66 1   
    68   15   67 1   
    69   23   68 1   
    70   24   69 1   
    71   24   70 1   
    72   25   71 1   
    73   25   72 1   
    74   26   73 1   
    75   29   74 1   
    76   29   75 1   
    77   30   76 1   
    78   34   77 1   
    79   34   78 1   
    80   38   79 1   
    81   38   80 1   
    82   40   81 1   
    83   41   82 1   
    84   43   83 1   
    85   44   84 1   
    86   44   85 1   
    87   45   86 1   
    88   46   87 1   
    89   46   88 1   
    90   47   89 1   
    91   48   90 1   
    92   48   91 1   
    93   49   92 1   
@<TRIPOS>SUBSTRUCTURE
     1 LIG         1 TEMP              0 ****  ****    0 ROOT
