@<TRIPOS>MOLECULE
THU
   30    31     1     0     0
SMALL
bcc


@<TRIPOS>ATOM
      1 N1         -0.9080   -0.0340   -0.0230 N.        1 U1      -0.473800
      2 C2         -1.8330   -0.9880   -0.2170 C.        1 U1       0.817500
      3 O2         -1.4730   -2.1140   -0.4980 O.3       1 U1      -0.638500
      4 N3         -3.1460   -0.7290   -0.0970 N.        1 U1      -0.597500
      5 C4         -3.5980    0.5360   -0.0270 C.        1 U1       0.706500
      6 O4         -4.7770    0.7490    0.1570 O.3       1 U1      -0.600500
      7 C5         -2.6370    1.6890   -0.1760 C.3       1 U1      -0.176400
      8 C6         -1.2890    1.3030    0.4370 C.3       1 U1       0.087000
      9 C1*         0.5030   -0.3330   -0.2810 C.3       1 U1       0.296500
     10 C2*         1.0010   -1.4440    0.6780 C.3       1 U1      -0.146400
     11 C3*         2.5260   -1.1470    0.7060 C.3       1 U1       0.121100
     12 O3*         3.1830   -1.7580   -0.4070 O.h       1 U1      -0.581800
     13 C4*         2.5620    0.3920    0.5880 C.3       1 U1       0.052100
     14 O4*         1.3180    0.8120    0.0160 O.2       1 U1      -0.442600
     15 C5*         3.7200    0.8160   -0.3170 C.3       1 U1       0.134400
     16 O5*         3.8130    2.2420   -0.3350 O.h       1 U1      -0.591800
     17 H3         -3.7860   -1.4760   -0.0600 H         1 U1       0.352500
     18 H51        -3.0270    2.5480    0.3290 H         1 U1       0.093700
     19 H52        -2.5080    1.9180   -1.2130 H         1 U1       0.093700
     20 H61        -0.5440    2.0100    0.1350 H         1 U1       0.058200
     21 H62        -1.3690    1.3030    1.5040 H         1 U1       0.058200
     22 H1*         0.5790   -0.6240   -1.3080 H         1 U1       0.123700
     23 H2*1        0.7970   -2.4200    0.2890 H         1 U1       0.079700
     24 H2*2        0.5320   -1.4400    1.6400 H         1 U1       0.079700
     25 H3*         3.0230   -1.5240    1.5760 H         1 U1       0.091700
     26 H7          2.7730   -1.4530   -1.2320 H         1 U1       0.407000
     27 H4*         2.7040    0.8400    1.5490 H         1 U1       0.066700
     28 H5*1        3.5460    0.4570   -1.3100 H         1 U1       0.059700
     29 H5*2        4.6340    0.4040    0.0560 H         1 U1       0.059700
     30 H5*         2.9840    2.6160   -0.6730 H         1 U1       0.413000
@<TRIPOS>BOND
     1    1    2 1   
     2    1    8 1   
     3    1    9 1   
     4    2    3 2   
     5    2    4 1   
     6    4    5 1   
     7    5    6 2   
     8    5    7 1   
     9    7    8 1   
    10    9   10 1   
    11    9   14 1   
    12   10   11 1   
    13   11   12 1   
    14   11   13 1   
    15   13   14 1   
    16   13   15 1   
    17   15   16 1   
    18    4   17 1   
    19    7   18 1   
    20    7   19 1   
    21    8   20 1   
    22    8   21 1   
    23    9   22 1   
    24   10   23 1   
    25   10   24 1   
    26   11   25 1   
    27   12   26 1   
    28   13   27 1   
    29   15   28 1   
    30   15   29 1   
    31   16   30 1   
@<TRIPOS>SUBSTRUCTURE
     1 U1          1 TEMP              0 ****  ****    0 ROOT
