@<TRIPOS>MOLECULE
60H
   38    40     1     0     0
SMALL
bcc


@<TRIPOS>ATOM
      1 N          -0.5940    1.6970   -0.8140 N.4       1 LIG     -0.772000
      2 C          -0.4030    1.5640    0.6530 C.3       1 LIG      0.132500
      3 C1          0.1330    0.1740    1.0030 C.3       1 LIG      0.024900
      4 C2         -0.7650   -0.8770    0.4030 C.a       1 LIG     -0.128300
      5 C3         -1.3220   -1.8520    1.2100 C.a       1 LIG     -0.130500
      6 C4         -2.1460   -2.8160    0.6600 C.a       1 LIG     -0.114000
      7 C5         -2.4130   -2.8050   -0.6960 C.a       1 LIG     -0.103000
      8 C6         -1.8570   -1.8300   -1.5020 C.a       1 LIG     -0.114000
      9 C7         -1.0380   -0.8620   -0.9520 C.a       1 LIG     -0.130500
     10 C8          1.5260    0.0190    0.4490 C.a       1 LIG     -0.128300
     11 C9          2.5810   -0.2580    1.2990 C.a       1 LIG     -0.130500
     12 C10         3.8590   -0.4000    0.7910 C.a       1 LIG     -0.114000
     13 C11         4.0820   -0.2660   -0.5670 C.a       1 LIG     -0.103000
     14 C12         3.0270    0.0110   -1.4170 C.a       1 LIG     -0.114000
     15 C13         1.7480    0.1480   -0.9090 C.a       1 LIG     -0.130500
     16 C14        -1.8340    1.7550    1.2150 C.3       1 LIG     -0.101400
     17 C15        -2.4250    2.8450    0.2920 C.3       1 LIG     -0.100400
     18 C16        -1.5820    2.7830   -0.9950 C.3       1 LIG      0.111800
     19 H           0.2870    1.9400   -1.2660 H         1 LIG      0.457800
     20 H1         -0.9150    0.8240   -1.2310 H         1 LIG      0.457800
     21 H2          0.3030    2.2630    1.0510 H         1 LIG      0.112700
     22 H3          0.1560    0.0590    2.0670 H         1 LIG      0.099700
     23 H4         -1.1230   -1.8600    2.2230 H         1 LIG      0.128500
     24 H5         -2.5620   -3.5440    1.2620 H         1 LIG      0.152750
     25 H6         -3.0280   -3.5250   -1.1070 H         1 LIG      0.156000
     26 H7         -2.0530   -1.8250   -2.5150 H         1 LIG      0.152750
     27 H8         -0.6300   -0.1280   -1.5530 H         1 LIG      0.128500
     28 H9          2.4140   -0.3590    2.3120 H         1 LIG      0.128500
     29 H10         4.6460   -0.6060    1.4250 H         1 LIG      0.152750
     30 H11         5.0360   -0.3730   -0.9460 H         1 LIG      0.156000
     31 H12         3.1940    0.1160   -2.4300 H         1 LIG      0.152750
     32 H13         0.9590    0.3470   -1.5440 H         1 LIG      0.128500
     33 H14        -1.8070    2.0850    2.2320 H         1 LIG      0.093200
     34 H15        -2.4080    0.8520    1.2240 H         1 LIG      0.093200
     35 H16        -2.3420    3.8090    0.7490 H         1 LIG      0.093200
     36 H17        -3.4650    2.6840    0.0980 H         1 LIG      0.093200
     37 H18        -2.2100    2.5720   -1.8350 H         1 LIG      0.105200
     38 H19        -1.0930    3.7170   -1.1760 H         1 LIG      0.105200
@<TRIPOS>BOND
     1    1   18 1   
     2    2    1 1   
     3    2   16 1   
     4    3   10 1   
     5    3    2 1   
     6    4    3 1   
     7    5    4 ar  
     8    6    5 ar  
     9    7    6 ar  
    10    7    8 ar  
    11    8    9 ar  
    12    9    4 ar  
    13   10   11 ar  
    14   11   12 ar  
    15   13   12 ar  
    16   14   13 ar  
    17   15   10 ar  
    18   15   14 ar  
    19   16   17 1   
    20   18   17 1   
    21    1   19 1   
    22    1   20 1   
    23    2   21 1   
    24    3   22 1   
    25    5   23 1   
    26    6   24 1   
    27    7   25 1   
    28    8   26 1   
    29    9   27 1   
    30   11   28 1   
    31   12   29 1   
    32   13   30 1   
    33   14   31 1   
    34   15   32 1   
    35   16   33 1   
    36   16   34 1   
    37   17   35 1   
    38   17   36 1   
    39   18   37 1   
    40   18   38 1   
@<TRIPOS>SUBSTRUCTURE
     1 LIG         1 TEMP              0 ****  ****    0 ROOT
