@<TRIPOS>MOLECULE
AAR
   29    28     1     0     0
SMALL
bcc


@<TRIPOS>ATOM
      1 N           2.3540    1.7810   -0.2900 n4        1 LIG     -0.838600
      2 C           2.2950    0.4750    0.3790 c3        1 LIG      0.033500
      3 C1          1.0580   -0.2880   -0.1000 c3        1 LIG     -0.112400
      4 C2         -0.2040    0.4540    0.3470 c3        1 LIG     -0.105400
      5 C3         -1.4400   -0.3090   -0.1320 c3        1 LIG      0.031300
      6 N1         -2.6480    0.4020    0.2950 nh        1 LIG     -0.425100
      7 C4         -3.8820   -0.0960   -0.0210 cz        1 LIG      0.534300
      8 N2         -3.9860   -1.2270   -0.7180 nh        1 LIG     -0.490700
      9 N3         -4.9810    0.5490    0.3680 nh        1 LIG     -0.490700
     10 C5          3.5330   -0.3170    0.0470 c         1 LIG      0.642100
     11 O           4.1950   -0.0270   -0.9270 o         1 LIG     -0.574100
     12 N4          3.9050   -1.3460    0.8330 n         1 LIG     -0.615000
     13 H           1.5160    2.3170   -0.0650 hn        1 LIG      0.476800
     14 H1          2.4090    1.6440   -1.2990 hn        1 LIG      0.476800
     15 H2          3.1780    2.2900    0.0290 hn        1 LIG      0.476800
     16 H3          2.2380    0.6200    1.4380 hx        1 LIG      0.121700
     17 H4          1.0610   -1.2720    0.3200 hc        1 LIG      0.102700
     18 H5          1.0720   -0.3560   -1.1680 hc        1 LIG      0.102700
     19 H6         -0.2070    1.4380   -0.0730 hc        1 LIG      0.066200
     20 H7         -0.2180    0.5220    1.4150 hc        1 LIG      0.066200
     21 H8         -1.4370   -1.2930    0.2890 h1        1 LIG      0.075200
     22 H9         -1.4250   -0.3780   -1.2000 h1        1 LIG      0.075200
     23 H10        -2.5710    1.2380    0.8090 hn        1 LIG      0.323700
     24 H11        -3.1740   -1.7040   -1.0060 hn        1 LIG      0.335700
     25 H12        -4.8740   -1.5850   -0.9450 hn        1 LIG      0.335700
     26 H13        -4.9050    1.3850    0.8830 hn        1 LIG      0.335700
     27 H14        -5.8690    0.1900    0.1410 hn        1 LIG      0.335700
     28 H15         3.3670   -1.5810    1.6230 hn        1 LIG      0.353000
     29 H16         4.7150   -1.8630    0.6170 hn        1 LIG      0.353000
@<TRIPOS>BOND
     1    1    2 1   
     2    2    3 1   
     3    2   10 1   
     4    3    4 1   
     5    4    5 1   
     6    5    6 1   
     7    6    7 2   
     8    7    8 1   
     9    7    9 1   
    10   10   11 2   
    11   10   12 1   
    12    1   13 1   
    13    1   14 1   
    14    1   15 1   
    15    2   16 1   
    16    3   17 1   
    17    3   18 1   
    18    4   19 1   
    19    4   20 1   
    20    5   21 1   
    21    5   22 1   
    22    6   23 1   
    23    8   24 1   
    24    8   25 1   
    25    9   26 1   
    26    9   27 1   
    27   12   28 1   
    28   12   29 1   
@<TRIPOS>SUBSTRUCTURE
     1 LIG         1 TEMP              0 ****  ****    0 ROOT
