@<TRIPOS>MOLECULE
FVX
   44    44     1     0     0
SMALL
bcc


@<TRIPOS>ATOM
      1 C           5.0010    5.0150   -0.6820 C.3       1 LIG      0.114700
      2 O           4.4310    4.0430    0.1980 O.2       1 LIG     -0.420600
      3 C1          3.6090    3.0770   -0.4590 C.3       1 LIG      0.130400
      4 C2          3.0560    2.0920    0.5730 C.3       1 LIG     -0.086400
      5 C3          2.1750    1.0570   -0.1300 C.3       1 LIG     -0.071400
      6 C4          1.6220    0.0720    0.9030 C.3       1 LIG     -0.157700
      7 C5          0.6630   -0.8750    0.2300 C.e       1 LIG      0.507900
      8 N           1.0980   -1.9800   -0.2830 N.2       1 LIG     -0.564200
      9 O1          2.4540   -2.3520   -0.1160 O.2       1 LIG     -0.169300
     10 C6          2.7960   -3.5950   -0.7340 C.3       1 LIG      0.117400
     11 C7          4.2760   -3.8950   -0.4910 C.3       1 LIG      0.070800
     12 N1          4.5040   -4.1000    0.9460 N.4       1 LIG     -0.827600
     13 C8         -0.7740   -0.5420    0.1560 C.a       1 LIG     -0.142900
     14 C9         -1.2450    0.6520    0.7030 C.a       1 LIG     -0.113500
     15 C10        -2.5890    0.9570    0.6310 C.a       1 LIG     -0.078500
     16 C11        -3.4680    0.0820    0.0180 C.a       1 LIG     -0.146300
     17 C12        -3.0070   -1.1030   -0.5260 C.a       1 LIG     -0.078500
     18 C13        -1.6650   -1.4180   -0.4670 C.a       1 LIG     -0.113500
     19 C14        -4.9340    0.4220   -0.0570 C.3       1 LIG      0.687200
     20 F          -5.6870   -0.7570   -0.0550 F.        1 LIG     -0.225967
     21 F1         -5.2890    1.2040    1.0480 F.        1 LIG     -0.225967
     22 F2         -5.1880    1.1350   -1.2340 F.        1 LIG     -0.225967
     23 H           5.6000    5.6990   -0.1180 H         1 LIG      0.038367
     24 H1          4.2180    5.5510   -1.1770 H         1 LIG      0.038367
     25 H2          5.6120    4.5230   -1.4100 H         1 LIG      0.038367
     26 H3          4.1910    2.5460   -1.1830 H         1 LIG      0.027700
     27 H4          2.7980    3.5730   -0.9490 H         1 LIG      0.027700
     28 H5          3.8680    1.5960    1.0630 H         1 LIG      0.061700
     29 H6          2.4740    2.6230    1.2960 H         1 LIG      0.061700
     30 H7          2.7570    0.5260   -0.8540 H         1 LIG      0.048700
     31 H8          1.3630    1.5530   -0.6200 H         1 LIG      0.048700
     32 H9          1.1100    0.6120    1.6720 H         1 LIG      0.077700
     33 H10         2.4290   -0.4830    1.3340 H         1 LIG      0.077700
     34 H11         2.6130   -3.5320   -1.7860 H         1 LIG      0.103700
     35 H12         2.2000   -4.3780   -0.3140 H         1 LIG      0.103700
     36 H13         4.8680   -3.0710   -0.8320 H         1 LIG      0.117200
     37 H14         4.5540   -4.7790   -1.0260 H         1 LIG      0.117200
     38 H15         4.2390   -3.2570    1.4560 H         1 LIG      0.465467
     39 H16         5.4910   -4.3000    1.1090 H         1 LIG      0.465467
     40 H17         3.9400   -4.8850    1.2710 H         1 LIG      0.465467
     41 H18        -0.5900    1.3050    1.1600 H         1 LIG      0.149000
     42 H19        -2.9390    1.8400    1.0350 H         1 LIG      0.168000
     43 H20        -3.6690   -1.7540   -0.9770 H         1 LIG      0.168000
     44 H21        -1.3210   -2.2980   -0.8820 H         1 LIG      0.149000
@<TRIPOS>BOND
     1    2    1 1   
     2    3    2 1   
     3    4    5 1   
     4    4    3 1   
     5    6    5 1   
     6    7   13 1   
     7    7    6 1   
     8    8    7 2   
     9    9    8 1   
    10   10    9 1   
    11   11   10 1   
    12   12   11 1   
    13   13   18 ar  
    14   14   13 ar  
    15   14   15 ar  
    16   15   16 ar  
    17   16   17 ar  
    18   16   19 1   
    19   18   17 ar  
    20   19   22 1   
    21   20   19 1   
    22   21   19 1   
    23    1   23 1   
    24    1   24 1   
    25    1   25 1   
    26    3   26 1   
    27    3   27 1   
    28    4   28 1   
    29    4   29 1   
    30    5   30 1   
    31    5   31 1   
    32    6   32 1   
    33    6   33 1   
    34   10   34 1   
    35   10   35 1   
    36   11   36 1   
    37   11   37 1   
    38   12   38 1   
    39   12   39 1   
    40   12   40 1   
    41   14   41 1   
    42   15   42 1   
    43   17   43 1   
    44   18   44 1   
@<TRIPOS>SUBSTRUCTURE
     1 LIG         1 TEMP              0 ****  ****    0 ROOT
