@<TRIPOS>MOLECULE
CNU
   33    34     1     0     0
SMALL
bcc


@<TRIPOS>ATOM
      1 O          -5.6360   -0.1930   -0.1010 o         1 LIG     -0.921500
      2 P          -4.5490   -1.1440    0.2240 p5        1 LIG      1.346900
      3 O1         -4.9830   -2.0440    1.4860 o         1 LIG     -0.921500
      4 O2         -4.2720   -2.0960   -1.0440 o         1 LIG     -0.921500
      5 O3         -3.2100   -0.3250    0.5830 os        1 LIG     -0.566200
      6 C          -2.6310    0.6430   -0.2940 c3        1 LIG      0.229400
      7 C1         -1.3740    1.2290    0.3520 c3        1 LIG      0.062100
      8 O4         -0.3250    0.2370    0.4000 os        1 LIG     -0.432600
      9 C2         -0.8010    2.3670   -0.5220 c3        1 LIG      0.068100
     10 O5         -1.2120    3.6390   -0.0200 oh        1 LIG     -0.662800
     11 C3          0.7300    2.2030   -0.3940 c3        1 LIG      0.109100
     12 O6          1.3110    3.3710    0.1910 oh        1 LIG     -0.618800
     13 C4          0.9010    0.9860    0.5420 c3        1 LIG      0.268500
     14 N           2.0460    0.1750    0.1200 n         1 LIG     -0.361000
     15 C5          2.0370   -0.3890   -1.0980 c         1 LIG      0.797500
     16 O7          1.0770   -0.2120   -1.8220 o         1 LIG     -0.683500
     17 N1          3.0570   -1.1430   -1.5440 n         1 LIG     -0.597500
     18 C6          4.1390   -1.3590   -0.7660 c         1 LIG      0.730700
     19 O8          5.0650   -2.0400   -1.1650 o         1 LIG     -0.666500
     20 C7          3.0970    0.0150    0.9690 cc        1 LIG      0.127600
     21 C8          4.1740   -0.7520    0.5740 cd        1 LIG     -0.230900
     22 C9          5.2960   -0.9480    1.4420 ch        1 LIG      0.269500
     23 N2          6.1860   -1.1040    2.1310 n1        1 LIG     -0.404800
     24 H          -3.3370    1.4260   -0.4760 h1        1 LIG     -0.002800
     25 H1         -2.3710    0.1750   -1.2200 h1        1 LIG     -0.002800
     26 H2         -1.6550    1.5690    1.3270 h1        1 LIG      0.050700
     27 H3         -1.1380    2.3180   -1.5360 h1        1 LIG      0.174700
     28 H4         -0.9270    3.7300    0.9030 ho        1 LIG      0.494000
     29 H5          1.2110    2.0660   -1.3400 h1        1 LIG      0.075700
     30 H6          0.9040    3.5360    1.0560 ho        1 LIG      0.425000
     31 H7          1.0830    1.2770    1.5560 h2        1 LIG      0.107700
     32 H8          3.0150   -1.5400   -2.4440 hn        1 LIG      0.328500
     33 H9          3.0890    0.4630    1.8990 h4        1 LIG      0.326000
@<TRIPOS>BOND
     1    1    2 1   
     2    2    5 1   
     3    2    4 1   
     4    3    2 1   
     5    6    5 1   
     6    6    7 1   
     7    7    9 1   
     8    8    7 1   
     9    8   13 1   
    10    9   10 1   
    11   11    9 1   
    12   11   12 1   
    13   13   11 1   
    14   14   13 1   
    15   14   20 1   
    16   15   14 1   
    17   16   15 2   
    18   17   15 1   
    19   17   18 1   
    20   18   21 1   
    21   19   18 2   
    22   21   20 2   
    23   21   22 1   
    24   22   23 3   
    25    6   24 1   
    26    6   25 1   
    27    7   26 1   
    28    9   27 1   
    29   10   28 1   
    30   11   29 1   
    31   12   30 1   
    32   13   31 1   
    33   17   32 1   
    34   20   33 1   
@<TRIPOS>SUBSTRUCTURE
     1 LIG         1 TEMP              0 ****  ****    0 ROOT
