@<TRIPOS>MOLECULE
ZZE
   41    42     1     0     0
SMALL
bcc


@<TRIPOS>ATOM
      1 C          -0.8760    0.6030    0.8100 cc        1 LIG     -0.125200
      2 C1         -1.7730   -0.3900    0.5900 cd        1 LIG     -0.075600
      3 C2         -1.3780    1.7740    0.2280 cc        1 LIG      0.332600
      4 O           0.3030    0.4830    1.4820 os        1 LIG     -0.199200
      5 N          -2.8100    0.1420   -0.1090 na        1 LIG      0.100400
      6 C3         -1.6450   -1.8220    1.0400 c3        1 LIG     -0.023100
      7 N1         -2.5340    1.4990   -0.3210 nd        1 LIG     -0.505800
      8 C4         -0.7040    3.1220    0.2340 c3        1 LIG     -0.105700
      9 C5          1.4120    0.1500    0.7710 ca        1 LIG      0.108100
     10 C6         -4.0040   -0.5760   -0.5610 c3        1 LIG      0.013300
     11 C7         -0.9350   -2.6350   -0.0450 c3        1 LIG     -0.095100
     12 C8          0.1910    3.2500   -1.0010 c3        1 LIG     -0.090100
     13 C9          2.6320    0.0180    1.4150 ca        1 LIG     -0.115000
     14 C10         1.3190   -0.0620   -0.5960 ca        1 LIG     -0.115000
     15 C11        -5.0860   -0.4980    0.5190 c3        1 LIG      0.109400
     16 C12         3.7740   -0.3240    0.6880 ca        1 LIG      0.010000
     17 C13         2.4560   -0.4050   -1.3300 ca        1 LIG      0.010000
     18 O1         -6.2510   -1.1980    0.0780 oh        1 LIG     -0.589800
     19 C14         3.6860   -0.5330   -0.6870 ca        1 LIG     -0.089000
     20 C15         5.0340   -0.4600    1.3550 cg        1 LIG      0.228300
     21 C16         2.3580   -0.6230   -2.7420 cg        1 LIG      0.228300
     22 N2          6.0340   -0.5670    1.8830 n1        1 LIG     -0.345800
     23 N3          2.2810   -0.7970   -3.8620 n1        1 LIG     -0.345800
     24 H          -2.6190   -2.2300    1.2120 hc        1 LIG      0.067700
     25 H1         -1.0770   -1.8620    1.9460 hc        1 LIG      0.067700
     26 H2         -0.1090    3.2190    1.1180 hc        1 LIG      0.059200
     27 H3         -1.4460    3.8920    0.2180 hc        1 LIG      0.059200
     28 H4         -3.7560   -1.6010   -0.7440 h1        1 LIG      0.074200
     29 H5         -4.3680   -0.1300   -1.4630 h1        1 LIG      0.074200
     30 H6         -1.5040   -2.5940   -0.9510 hc        1 LIG      0.042367
     31 H7         -0.8440   -3.6520    0.2740 hc        1 LIG      0.042367
     32 H8          0.0390   -2.2270   -0.2170 hc        1 LIG      0.042367
     33 H9          0.9330    2.4800   -0.9850 hc        1 LIG      0.040367
     34 H10         0.6700    4.2070   -0.9970 hc        1 LIG      0.040367
     35 H11        -0.4050    3.1530   -1.8850 hc        1 LIG      0.040367
     36 H12         2.6960    0.1730    2.4330 ha        1 LIG      0.168000
     37 H13         0.4080    0.0340   -1.0720 ha        1 LIG      0.168000
     38 H14        -5.3340    0.5270    0.7020 h1        1 LIG      0.064700
     39 H15        -4.7220   -0.9440    1.4210 h1        1 LIG      0.064700
     40 H16        -6.5810   -0.7940   -0.7400 ho        1 LIG      0.403000
     41 H17         4.5290   -0.7820   -1.2280 ha        1 LIG      0.160000
@<TRIPOS>BOND
     1    1    2 ar  
     2    1    3 ar  
     3    1    4 1   
     4    2    5 ar  
     5    2    6 1   
     6    3    7 ar  
     7    3    8 1   
     8    4    9 1   
     9    5    7 ar  
    10    5   10 1   
    11    6   11 1   
    12    8   12 1   
    13    9   13 ar  
    14    9   14 ar  
    15   10   15 1   
    16   13   16 ar  
    17   14   17 ar  
    18   15   18 1   
    19   16   19 ar  
    20   16   20 1   
    21   17   19 ar  
    22   17   21 1   
    23   20   22 3   
    24   21   23 3   
    25    6   24 1   
    26    6   25 1   
    27    8   26 1   
    28    8   27 1   
    29   10   28 1   
    30   10   29 1   
    31   11   30 1   
    32   11   31 1   
    33   11   32 1   
    34   12   33 1   
    35   12   34 1   
    36   12   35 1   
    37   13   36 1   
    38   14   37 1   
    39   15   38 1   
    40   15   39 1   
    41   18   40 1   
    42   19   41 1   
@<TRIPOS>SUBSTRUCTURE
     1 LIG         1 TEMP              0 ****  ****    0 ROOT
