@<TRIPOS>MOLECULE
HZ7
   95    95     1     0     0
SMALL
bcc


@<TRIPOS>ATOM
      1 C          -6.3200   -0.5580   -0.5530 c3        1 LIG      0.103100
      2 C1         -5.9250    0.8830   -0.8860 c3        1 LIG      0.182600
      3 C2         -4.4130    0.9590   -1.1040 c3        1 LIG      0.117100
      4 C3         -3.6910    0.5130    0.1680 c3        1 LIG      0.153100
      5 C4         -4.0860   -0.9270    0.5010 c3        1 LIG      0.117100
      6 C5         -5.5980   -1.0030    0.7200 c3        1 LIG      0.182600
      7 C6          3.5140   -0.6810   -0.3930 c3        1 LIG      0.377900
      8 C7          3.7240   -2.1520   -0.0300 c3        1 LIG     -0.160400
      9 C8          6.1880    2.3990    0.9540 c3        1 LIG      0.306900
     10 C9          7.4270    1.8670    0.2310 c3        1 LIG     -0.055400
     11 C10         4.6060   -2.8180   -1.0890 c3        1 LIG     -0.059400
     12 C11         4.8160   -4.2890   -0.7260 c3        1 LIG     -0.088400
     13 C12         5.6980   -4.9540   -1.7840 c3        1 LIG     -0.071400
     14 C13         5.9080   -6.4260   -1.4210 c3        1 LIG     -0.085400
     15 C14         6.7900   -7.0910   -2.4800 c3        1 LIG     -0.077400
     16 C15         7.0000   -8.5620   -2.1170 c3        1 LIG     -0.090100
     17 C16         8.6850    2.4500    0.8780 c3        1 LIG     -0.129400
     18 C17         9.9240    1.9180    0.1560 c3        1 LIG     -0.033400
     19 C18        11.1820    2.5020    0.8030 c3        1 LIG     -0.139400
     20 C19        12.4210    1.9690    0.0800 c3        1 LIG     -0.051400
     21 C20        13.6780    2.5530    0.7270 c3        1 LIG     -0.093400
     22 C21        14.9170    2.0210    0.0040 c3        1 LIG     -0.078100
     23 C22         1.3300    1.8390    1.1160 c3        1 LIG      0.143400
     24 C23         2.6350    1.3780    0.4660 c3        1 LIG      0.094100
     25 C24         3.8140    2.1090    1.1110 c3        1 LIG      0.109400
     26 O          -3.7170   -1.7840   -0.5810 oh        1 LIG     -0.653800
     27 O1         -6.8350   -4.3660    2.4760 o         1 LIG     -0.949167
     28 O2         -8.1450   -2.0870    2.4790 o         1 LIG     -0.949167
     29 O3         -5.8700   -2.2960    3.5520 o         1 LIG     -0.949167
     30 O4         -6.7950    3.9080   -1.8090 o         1 LIG     -0.949167
     31 O5         -8.6660    2.3700   -1.0970 o         1 LIG     -0.949167
     32 O6         -8.2820    2.6510   -3.5760 o         1 LIG     -0.949167
     33 O7          5.0210    1.7660    0.4270 os        1 LIG     -0.490600
     34 O8          2.7890   -0.0310    0.6530 os        1 LIG     -0.481600
     35 O9          2.7730   -0.5920   -1.6120 oh        1 LIG     -0.673800
     36 O10         6.0930    3.8110    0.7600 oh        1 LIG     -0.671800
     37 O11        -5.9670   -2.3490    1.0300 os        1 LIG     -0.586700
     38 O12        -2.2780    0.5850   -0.0360 os        1 LIG     -0.588200
     39 O13        -6.6000    1.2990   -2.0750 os        1 LIG     -0.586700
     40 O14        -7.7330   -0.6290   -0.3490 oh        1 LIG     -0.637800
     41 O15        -4.0440    2.3040   -1.4150 oh        1 LIG     -0.653800
     42 O16        -1.4930    1.1840    2.2870 o         1 LIG     -0.857000
     43 O17         0.2220    1.2450    0.4360 os        1 LIG     -0.611200
     44 O18        -1.6720    3.0600    0.6080 o         1 LIG     -0.857000
     45 P          -1.3090    1.5110    0.8550 p5        1 LIG      1.454800
     46 P1         -6.6870   -2.7640    2.4090 p5        1 LIG      1.346400
     47 P2         -7.6090    2.5530   -2.1170 p5        1 LIG      1.346400
     48 H          -6.0440   -1.2000   -1.3630 h1        1 LIG      0.043700
     49 H1         -6.2010    1.5260   -0.0760 h1        1 LIG      0.043200
     50 H2         -4.1370    0.3170   -1.9140 h1        1 LIG      0.054700
     51 H3         -3.9670    1.1550    0.9790 h1        1 LIG      0.065700
     52 H4         -3.5810   -1.2390    1.3910 h1        1 LIG      0.054700
     53 H5         -5.8740   -0.3610    1.5300 h1        1 LIG      0.043200
     54 H6          4.4640   -0.2050   -0.5170 h2        1 LIG      0.015700
     55 H7          4.2010   -2.2190    0.9250 hc        1 LIG      0.098200
     56 H8          2.7770   -2.6480    0.0090 hc        1 LIG      0.098200
     57 H9          6.2670    2.1880    2.0000 h2        1 LIG      0.169700
     58 H10         7.3900    2.1550   -0.7990 hc        1 LIG      0.004200
     59 H11         7.4510    0.8000    0.3030 hc        1 LIG      0.004200
     60 H12         5.5530   -2.3210   -1.1280 hc        1 LIG      0.013700
     61 H13         4.1290   -2.7510   -2.0440 hc        1 LIG      0.013700
     62 H14         3.8690   -4.7860   -0.6880 hc        1 LIG      0.062200
     63 H15         5.2930   -4.3560    0.2300 hc        1 LIG      0.062200
     64 H16         6.6450   -4.4570   -1.8220 hc        1 LIG      0.018700
     65 H17         5.2210   -4.8870   -2.7400 hc        1 LIG      0.018700
     66 H18         4.9610   -6.9230   -1.3820 hc        1 LIG      0.052200
     67 H19         6.3850   -6.4940   -0.4660 hc        1 LIG      0.052200
     68 H20         7.7370   -6.5940   -2.5190 hc        1 LIG      0.023200
     69 H21         6.3130   -7.0240   -3.4350 hc        1 LIG      0.023200
     70 H22         7.4770   -8.6290   -1.1620 hc        1 LIG      0.023367
     71 H23         7.6170   -9.0270   -2.8570 hc        1 LIG      0.023367
     72 H24         6.0530   -9.0590   -2.0780 hc        1 LIG      0.023367
     73 H25         8.7220    2.1630    1.9080 hc        1 LIG      0.112200
     74 H26         8.6610    3.5170    0.8050 hc        1 LIG      0.112200
     75 H27         9.8870    2.2050   -0.8740 hc        1 LIG     -0.019300
     76 H28         9.9480    0.8510    0.2290 hc        1 LIG     -0.019300
     77 H29        11.1580    3.5690    0.7300 hc        1 LIG      0.110200
     78 H30        11.2190    2.2160    1.8330 hc        1 LIG      0.110200
     79 H31        12.3840    2.2560   -0.9500 hc        1 LIG     -0.002300
     80 H32        12.4450    0.9020    0.1520 hc        1 LIG     -0.002300
     81 H33        13.7150    2.2660    1.7570 hc        1 LIG      0.061700
     82 H34        13.6530    3.6200    0.6550 hc        1 LIG      0.061700
     83 H35        14.9410    0.9540    0.0760 hc        1 LIG      0.002700
     84 H36        15.7970    2.4290    0.4560 hc        1 LIG      0.002700
     85 H37        14.8800    2.3080   -1.0260 hc        1 LIG      0.002700
     86 H38         1.2570    2.9050    1.0530 h1        1 LIG      0.065200
     87 H39         1.3190    1.5400    2.1430 h1        1 LIG      0.065200
     88 H40         2.6080    1.5990   -0.5810 h1        1 LIG      0.049700
     89 H41         3.8930    1.8210    2.1390 h1        1 LIG      0.087700
     90 H42         3.6560    3.1650    1.0470 h1        1 LIG      0.087700
     91 H43        -4.1750   -1.5010   -1.3880 ho        1 LIG      0.442500
     92 H44         1.9110   -1.0230   -1.4990 ho        1 LIG      0.469000
     93 H45         6.0210    4.0030   -0.1880 ho        1 LIG      0.466000
     94 H46        -7.9830   -0.0470    0.3850 ho        1 LIG      0.408000
     95 H47        -4.2950    2.8860   -0.6810 ho        1 LIG      0.442500
@<TRIPOS>BOND
     1    1   40 1   
     2    1    2 1   
     3    1    6 1   
     4    2    3 1   
     5    3    4 1   
     6    3   41 1   
     7    4   38 1   
     8    5    4 1   
     9    6    5 1   
    10    7   35 1   
    11    8   11 1   
    12    8    7 1   
    13    9   10 1   
    14   10   17 1   
    15   12   11 1   
    16   13   12 1   
    17   14   13 1   
    18   15   14 1   
    19   16   15 1   
    20   17   18 1   
    21   19   20 1   
    22   19   18 1   
    23   21   20 1   
    24   22   21 1   
    25   23   24 1   
    26   24   25 1   
    27   25   33 1   
    28   26    5 1   
    29   27   46 1   
    30   29   46 1   
    31   31   47 1   
    32   33    9 1   
    33   34    7 1   
    34   34   24 1   
    35   36    9 1   
    36   37    6 1   
    37   39    2 1   
    38   42   45 1   
    39   43   23 1   
    40   45   43 1   
    41   45   38 1   
    42   45   44 1   
    43   46   28 1   
    44   46   37 1   
    45   47   30 1   
    46   47   39 1   
    47   47   32 1   
    48    1   48 1   
    49    2   49 1   
    50    3   50 1   
    51    4   51 1   
    52    5   52 1   
    53    6   53 1   
    54    7   54 1   
    55    8   55 1   
    56    8   56 1   
    57    9   57 1   
    58   10   58 1   
    59   10   59 1   
    60   11   60 1   
    61   11   61 1   
    62   12   62 1   
    63   12   63 1   
    64   13   64 1   
    65   13   65 1   
    66   14   66 1   
    67   14   67 1   
    68   15   68 1   
    69   15   69 1   
    70   16   70 1   
    71   16   71 1   
    72   16   72 1   
    73   17   73 1   
    74   17   74 1   
    75   18   75 1   
    76   18   76 1   
    77   19   77 1   
    78   19   78 1   
    79   20   79 1   
    80   20   80 1   
    81   21   81 1   
    82   21   82 1   
    83   22   83 1   
    84   22   84 1   
    85   22   85 1   
    86   23   86 1   
    87   23   87 1   
    88   24   88 1   
    89   25   89 1   
    90   25   90 1   
    91   26   91 1   
    92   35   92 1   
    93   36   93 1   
    94   40   94 1   
    95   41   95 1   
@<TRIPOS>SUBSTRUCTURE
     1 LIG         1 TEMP              0 ****  ****    0 ROOT
