@<TRIPOS>MOLECULE
3LM
   40    40     1     0     0
SMALL
bcc


@<TRIPOS>ATOM
      1 C          -2.7020    0.6880   -1.4780 c         1 MET      0.907800
      2 N          -1.2130   -0.4300    0.1750 nh        1 MET     -0.735000
      3 O          -3.3480   -0.0880   -2.1550 o         1 MET     -0.830800
      4 P           3.9790    2.3190    0.1710 p5        0 UNK      1.315900
      5 N           2.8780   -3.1440    0.6130 nb        0 UNK     -0.676000
      6 C           1.7610   -3.7680    0.2990 ca        0 UNK      0.292600
      7 C1          0.6770   -3.0650   -0.2080 ca        0 UNK      0.015800
      8 O          -0.4740   -3.7130   -0.5310 oh        0 UNK     -0.545100
      9 C2          0.7850   -1.6890   -0.3820 ca        0 UNK     -0.199300
     10 C3          1.9780   -1.0740   -0.0380 ca        0 UNK     -0.135600
     11 C4          3.0130   -1.8410    0.4610 ca        0 UNK      0.359200
     12 CA         -2.3530    0.3390   -0.0880 ce        1 MET      0.117800
     13 CB         -3.1240    0.7570    0.9190 c2        1 MET     -0.391200
     14 SD         -5.8120    0.4750    1.2020 ss        1 MET     -0.515200
     15 CE         -7.2500    1.4940    0.7750 c3        1 MET      0.000000
     16 CG         -4.4140    1.4800    0.6310 c3        1 MET      0.153900
     17 C5          1.6590   -5.2590    0.4920 c3        0 UNK     -0.104400
     18 C6         -0.3680   -0.8880   -0.9300 c3        0 UNK      0.241100
     19 C7          2.1440    0.4140   -0.2080 c3        0 UNK      0.241700
     20 O1          3.8250    2.8560   -1.1990 o         0 UNK     -0.925833
     21 O2          5.5320    2.3640    0.5930 o         0 UNK     -0.925833
     22 O3          3.1180    3.2130    1.1970 o         0 UNK     -0.925833
     23 O4          3.4540    0.7980    0.2140 os        0 UNK     -0.564200
     24 OXT        -2.3010    1.8640   -1.9990 o         1 MET     -0.830800
     25 H          -0.9790   -0.6630    1.1030 hn        1 MET      0.407800
     26 H          -0.5390   -4.6400   -0.4110 ho        0 UNK      0.461000
     27 H1          3.9040   -1.3880    0.7180 h4        0 UNK      0.146100
     28 HB         -2.8360    0.5850    1.8950 ha        1 MET      0.103000
     29 HE1        -8.1460    0.9890    1.0720 h1        1 MET      0.064367
     30 HE2        -7.2680    1.6600   -0.2820 h1        1 MET      0.064367
     31 HE3        -7.1850    2.4330    1.2830 h1        1 MET      0.064367
     32 HG1        -4.5020    1.6470   -0.4220 h1        1 MET      0.057200
     33 HG2        -4.4180    2.4200    1.1430 h1        1 MET      0.057200
     34 H2          2.5810   -5.6310    0.8880 hc        0 UNK      0.018700
     35 H3          1.4600   -5.7280   -0.4490 hc        0 UNK      0.018700
     36 H4          0.8640   -5.4770    1.1740 hc        0 UNK      0.018700
     37 H5          0.0080   -0.0420   -1.4660 h1        0 UNK      0.068200
     38 H6         -0.9460   -1.5000   -1.5910 h1        0 UNK      0.068200
     39 H7          1.4140    0.9240    0.3850 h1        0 UNK      0.020700
     40 H8          2.0110    0.6730   -1.2380 h1        0 UNK      0.020700
@<TRIPOS>BOND
     1    1    3 1   
     2    1   12 1   
     3    1   24 1   
     4    2   12 1   
     5    2   18 1   
     6    4   20 1   
     7    4   21 1   
     8    4   22 1   
     9    4   23 1   
    10    5    6 ar  
    11    5   11 ar  
    12    6    7 ar  
    13    6   17 1   
    14    7    8 1   
    15    7    9 ar  
    16    9   10 ar  
    17    9   18 1   
    18   10   11 ar  
    19   10   19 1   
    20   12   13 2   
    21   13   16 1   
    22   14   15 1   
    23   14   16 1   
    24   19   23 1   
    25    2   25 1   
    26    8   26 1   
    27   11   27 1   
    28   13   28 1   
    29   15   29 1   
    30   15   30 1   
    31   15   31 1   
    32   16   32 1   
    33   16   33 1   
    34   17   34 1   
    35   17   35 1   
    36   17   36 1   
    37   18   37 1   
    38   18   38 1   
    39   19   39 1   
    40   19   40 1   
@<TRIPOS>SUBSTRUCTURE
     1 MET         1 TEMP              0 ****  ****    0 ROOT
