@<TRIPOS>MOLECULE
LYK
   28    27     1     0     0
SMALL
bcc


@<TRIPOS>ATOM
      1 C          -2.5230   -0.4650   -0.4270 c3        1 LYS      0.333900
      2 N          -1.4130    1.2960    0.8630 n4        1 LYS     -0.834600
      3 O          -3.6740    0.3450   -0.6770 oh        1 LYS     -0.645800
      4 CA         -1.2860    0.4280   -0.3150 c3        1 LYS      0.123500
      5 CB         -0.0380   -0.4450   -0.1730 c3        1 LYS     -0.114400
      6 CD          2.4570   -0.4330   -0.0430 c3        1 LYS     -0.109400
      7 CE          3.7040    0.4540   -0.0570 c3        1 LYS      0.100800
      8 CG          1.2090    0.4410   -0.1860 c3        1 LYS     -0.086400
      9 NZ          4.9030   -0.3850    0.0800 n4        1 LYS     -0.837600
     10 OXT        -2.7030   -1.1840    0.7940 oh        1 LYS     -0.645800
     11 H          -2.3920   -1.1570   -1.2320 h2        1 LYS      0.097700
     12 H1         -2.2450    1.8780    0.7680 hn        1 LYS      0.473467
     13 H2         -0.5880    1.8910    0.9370 hn        1 LYS      0.473467
     14 H3         -1.4940    0.7210    1.7020 hn        1 LYS      0.473467
     15 H4         -3.9750    0.4730   -1.5550 ho        1 LYS      0.469500
     16 HA         -1.2010    1.0310   -1.1950 hx        1 LYS      0.124700
     17 HB1         0.0080   -1.1370   -0.9880 hc        1 LYS      0.100200
     18 HB2        -0.0830   -0.9840    0.7500 hc        1 LYS      0.100200
     19 HD1         2.5030   -1.1260   -0.8570 hc        1 LYS      0.081700
     20 HD2         2.4120   -0.9710    0.8810 hc        1 LYS      0.081700
     21 HE1         3.6580    1.1470    0.7570 hx        1 LYS      0.118200
     22 HE2         3.7490    0.9920   -0.9810 hx        1 LYS      0.118200
     23 HG1         1.2540    0.9790   -1.1100 hc        1 LYS      0.059200
     24 HG2         1.1630    1.1330    0.6280 hc        1 LYS      0.059200
     25 HZ1         4.8600   -0.8980    0.9610 hn        1 LYS      0.471800
     26 HZ2         5.7340    0.2060    0.0710 hn        1 LYS      0.471800
     27 HZ3         4.9470   -1.0450   -0.6960 hn        1 LYS      0.471800
     28 HXT        -2.0330   -1.7630    1.1000 ho        1 LYS      0.469500
@<TRIPOS>BOND
     1    1    3 1   
     2    1   10 1   
     3    4    1 1   
     4    4    2 1   
     5    5    4 1   
     6    6    8 1   
     7    7    6 1   
     8    8    5 1   
     9    9    7 1   
    10    1   11 1   
    11    2   12 1   
    12    2   13 1   
    13    2   14 1   
    14    3   15 1   
    15    4   16 1   
    16    5   17 1   
    17    5   18 1   
    18    6   19 1   
    19    6   20 1   
    20    7   21 1   
    21    7   22 1   
    22    8   23 1   
    23    8   24 1   
    24    9   25 1   
    25    9   26 1   
    26    9   27 1   
    27   10   28 1   
@<TRIPOS>SUBSTRUCTURE
     1 LYS         1 TEMP              0 ****  ****    0 ROOT
