@<TRIPOS>MOLECULE
I2C
   58    61     1     0     0
SMALL
bcc


@<TRIPOS>ATOM
      1 O           8.7280   -0.8380    2.6190 O.3       1 LIG     -0.560100
      2 C           8.5100    0.0140    1.7920 C.        1 LIG      0.579900
      3 N           6.7710    1.5670   -0.4410 N.b       1 LIG     -0.776000
      4 C1          5.6840    2.2730   -0.7060 C.a       1 LIG      0.621600
      5 O1          5.7980    3.4760   -1.3220 O.h       1 LIG     -0.623300
      6 C2          4.4280    1.7950   -0.3590 C.a       1 LIG     -0.238600
      7 C3          3.1930    2.6030   -0.6640 C.3       1 LIG     -0.038800
      8 C4          7.9800   -0.3700    0.4350 C.3       1 LIG     -0.246700
      9 C5          6.7090    0.3910    0.1570 C.a       1 LIG      0.422600
     10 C6          5.4980   -0.1490    0.5320 C.a       1 LIG     -0.236600
     11 C7          5.4400   -1.4910    1.2150 C.3       1 LIG     -0.048800
     12 C8          4.3260    0.5620    0.2720 C.a       1 LIG      0.269100
     13 O2          3.1160    0.0600    0.6280 O.2       1 LIG     -0.492500
     14 P           2.3620   -0.7300   -0.5540 P.5       1 LIG      1.453800
     15 O3          3.1970   -2.0530   -0.9340 O.3       1 LIG     -0.817500
     16 O4          2.2560    0.1440   -1.7440 O.3       1 LIG     -0.817500
     17 O5          0.8870   -1.1500   -0.0640 O.2       1 LIG     -0.560200
     18 C9         -0.0710   -1.7740   -0.9220 C.3       1 LIG      0.183400
     19 C10        -1.3610   -2.0360   -0.1410 C.3       1 LIG      0.080100
     20 O6         -1.9780   -0.7870    0.2150 O.2       1 LIG     -0.423600
     21 C11        -2.3610   -2.8050   -1.0250 C.3       1 LIG      0.091100
     22 O7         -2.6920   -4.0610   -0.4300 O.h       1 LIG     -0.593800
     23 C12        -3.6060   -1.8860   -1.0780 C.3       1 LIG      0.075100
     24 O8         -4.8090   -2.6510   -0.9740 O.h       1 LIG     -0.610800
     25 C13        -3.4060   -0.9960    0.1750 C.3       1 LIG      0.246800
     26 N1         -4.1100    0.2790    0.0200 N.a       1 LIG     -0.206900
     27 C14        -5.4030    0.5390    0.3830 C.c       1 LIG      0.089800
     28 N2         -6.3790   -0.1860    0.9430 N.c       1 LIG     -0.644100
     29 C15        -7.5600    0.3370    1.1860 C.d       1 LIG      0.633800
     30 N3         -8.5290   -0.4450    1.7620 N.h       1 LIG     -0.874800
     31 N4         -7.8500    1.6340    0.8830 N.        1 LIG     -0.503400
     32 C16        -3.5930    1.4270   -0.5070 C.c       1 LIG      0.427400
     33 N5         -4.4950    2.3640   -0.4910 N.d       1 LIG     -0.615000
     34 C17        -5.6390    1.8770    0.0490 C.d       1 LIG      0.190800
     35 C18        -6.9150    2.4270    0.3150 C.        1 LIG      0.647000
     36 O9         -7.1640    3.5890    0.0410 O.3       1 LIG     -0.620500
     37 H           8.6870    1.0060    2.0150 H         1 LIG      0.006200
     38 H1          6.6440    3.8030   -1.5580 H         1 LIG      0.423000
     39 H2          3.4740    3.5150   -1.1480 H         1 LIG      0.055367
     40 H3          2.6790    2.8260    0.2470 H         1 LIG      0.055367
     41 H4          2.5490    2.0410   -1.3080 H         1 LIG      0.055367
     42 H5          7.7780   -1.4210    0.4150 H         1 LIG      0.087700
     43 H6          8.7080   -0.1320   -0.3120 H         1 LIG      0.087700
     44 H7          6.4310   -1.8780    1.3260 H         1 LIG      0.050367
     45 H8          4.8580   -2.1670    0.6240 H         1 LIG      0.050367
     46 H9          4.9890   -1.3810    2.1790 H         1 LIG      0.050367
     47 H10         0.3230   -2.7020   -1.2820 H         1 LIG      0.045200
     48 H11        -0.2800   -1.1300   -1.7510 H         1 LIG      0.045200
     49 H12        -1.1150   -2.6010    0.7340 H         1 LIG      0.078700
     50 H13        -1.9680   -3.0220   -1.9960 H         1 LIG      0.131700
     51 H14        -3.0540   -3.9130    0.4580 H         1 LIG      0.400000
     52 H15        -3.6970   -1.3340   -1.9900 H         1 LIG      0.118700
     53 H16        -4.7870   -3.1790   -0.1600 H         1 LIG      0.422000
     54 H17        -3.7890   -1.4410    1.0700 H         1 LIG      0.110700
     55 H18        -8.3350   -1.3840    1.9870 H         1 LIG      0.396800
     56 H19        -9.4180   -0.0680    1.9510 H         1 LIG      0.396800
     57 H20        -8.7450    1.9950    1.0790 H         1 LIG      0.327500
     58 H21        -2.6310    1.5350   -0.8650 H         1 LIG      0.142100
@<TRIPOS>BOND
     1    1    2 2   
     2    2    8 1   
     3    3    4 ar  
     4    3    9 ar  
     5    4    5 1   
     6    4    6 ar  
     7    6    7 1   
     8    6   12 ar  
     9    8    9 1   
    10    9   10 ar  
    11   10   11 1   
    12   10   12 ar  
    13   12   13 1   
    14   13   14 1   
    15   14   15 1   
    16   14   16 1   
    17   14   17 1   
    18   17   18 1   
    19   18   19 1   
    20   19   20 1   
    21   19   21 1   
    22   20   25 1   
    23   21   22 1   
    24   21   23 1   
    25   23   24 1   
    26   23   25 1   
    27   25   26 1   
    28   26   27 ar  
    29   26   32 ar  
    30   27   28 1   
    31   27   34 ar  
    32   28   29 2   
    33   29   30 1   
    34   29   31 1   
    35   31   35 1   
    36   32   33 ar  
    37   33   34 ar  
    38   34   35 1   
    39   35   36 2   
    40    2   37 1   
    41    5   38 1   
    42    7   39 1   
    43    7   40 1   
    44    7   41 1   
    45    8   42 1   
    46    8   43 1   
    47   11   44 1   
    48   11   45 1   
    49   11   46 1   
    50   18   47 1   
    51   18   48 1   
    52   19   49 1   
    53   21   50 1   
    54   22   51 1   
    55   23   52 1   
    56   24   53 1   
    57   25   54 1   
    58   30   55 1   
    59   30   56 1   
    60   31   57 1   
    61   32   58 1   
@<TRIPOS>SUBSTRUCTURE
     1 LIG         1 TEMP              0 ****  ****    0 ROOT
