@<TRIPOS>MOLECULE
0HG
   49    49     1     0     0
SMALL
bcc


@<TRIPOS>ATOM
      1 N          -4.6670   -4.5020   -1.6350 n4        1 UNK     -0.835600
      2 C          -3.8940   -4.6280   -0.3930 c3        1 UNK     -0.056500
      3 C1         -4.6060   -5.5660    0.5490 c         1 UNK      0.930600
      4 O          -5.7830   -5.7920    0.4010 o         1 UNK     -0.778300
      5 C2         -3.7560   -3.2530    0.2640 c3        1 UNK     -0.084400
      6 C3         -2.9260   -2.3380   -0.6380 c3        1 UNK     -0.163400
      7 C4         -2.7900   -0.9840    0.0090 c         1 UNK      0.645100
      8 O1         -3.3060   -0.7720    1.0860 o         1 UNK     -0.635100
      9 O2         -3.9310   -6.1500    1.5520 o         1 UNK     -0.778300
     10 C5         -1.9630    1.3080    0.0200 c3        1 UNK      0.018700
     11 C6         -3.1660    2.1500   -0.3190 c         1 UNK      0.645100
     12 O3         -4.0470    1.6950   -1.0170 o         1 UNK     -0.708100
     13 N1         -2.0950   -0.0090   -0.6090 n         1 UNK     -0.517900
     14 C7         -0.6970    1.9950   -0.4960 c3        1 UNK     -0.041300
     15 S           0.7510    0.9820   -0.0880 ss        1 UNK     -0.335200
     16 Br          7.4400   -0.9930    0.2960 br        1 UNK     -0.123100
     17 C8          3.4250    1.2240   -0.5070 ca        1 UNK     -0.065300
     18 C9          3.9080    0.3140   -1.4290 ca        1 UNK     -0.117000
     19 C10         5.1000   -0.3440   -1.1910 ca        1 UNK     -0.116500
     20 C11         5.8100   -0.0930   -0.0300 ca        1 UNK     -0.027900
     21 C12         5.3250    0.8180    0.8920 ca        1 UNK     -0.116500
     22 C13         4.1330    1.4760    0.6530 ca        1 UNK     -0.117000
     23 C14         2.1280    1.9460   -0.7700 c3        1 UNK      0.021000
     24 N          -3.2630    3.4080    0.1540 n         2 GLY     -0.472900
     25 CA         -4.4320    4.2260   -0.1760 c3        2 GLY     -0.077000
     26 C          -4.2960    5.5810    0.4710 c         2 GLY      0.901600
     27 O          -3.3220    5.8360    1.1390 o         2 GLY     -0.839800
     28 OXT        -5.2570    6.5030    0.3050 o         2 GLY     -0.839800
     29 H          -4.7590   -5.4190   -2.0730 hn        1 UNK      0.459467
     30 H1         -4.1860   -3.8680   -2.2720 hn        1 UNK      0.459467
     31 H2         -5.5940   -4.1320   -1.4230 hn        1 UNK      0.459467
     32 H3         -2.9220   -5.0160   -0.6160 hx        1 UNK      0.082700
     33 H4         -3.2690   -3.3570    1.2110 hc        1 UNK      0.091700
     34 H5         -4.7270   -2.8270    0.4070 hc        1 UNK      0.091700
     35 H6         -3.4130   -2.2330   -1.5850 hc        1 UNK      0.069700
     36 H7         -1.9550   -2.7640   -0.7810 hc        1 UNK      0.069700
     37 H8         -1.8980    1.1910    1.0820 h1        1 UNK      0.111700
     38 H9         -1.6760   -0.1810   -1.4830 hn        1 UNK      0.304500
     39 H10        -0.6010    2.9560   -0.0360 h1        1 UNK      0.109700
     40 H11        -0.7620    2.1120   -1.5580 h1        1 UNK      0.109700
     41 H12         3.3790    0.1260   -2.2950 ha        1 UNK      0.172000
     42 H13         5.4610   -1.0230   -1.8790 ha        1 UNK      0.140000
     43 H14         5.8530    1.0060    1.7580 ha        1 UNK      0.140000
     44 H15         3.7720    2.1550    1.3410 ha        1 UNK      0.172000
     45 H16         2.1550    2.9090   -0.3040 h1        1 UNK      0.109700
     46 H17         1.9930    2.0640   -1.8250 h1        1 UNK      0.109700
     47 H          -2.5480    3.7770    0.7210 hn        2 GLY      0.301500
     48 HA1        -5.3170    3.7450    0.1850 h1        2 GLY      0.061200
     49 HA2        -4.4980    4.3430   -1.2380 h1        2 GLY      0.061200
@<TRIPOS>BOND
     1    1    2 1   
     2    2    3 1   
     3    2    5 1   
     4    3    4 1   
     5    3    9 1   
     6    5    6 1   
     7    6    7 1   
     8    7    8 2   
     9    7   13 1   
    10   10   11 1   
    11   10   13 1   
    12   10   14 1   
    13   11   12 2   
    14   11   24 1   
    15   14   15 1   
    16   15   23 1   
    17   16   20 1   
    18   17   18 ar  
    19   17   22 ar  
    20   17   23 1   
    21   18   19 ar  
    22   19   20 ar  
    23   20   21 ar  
    24   21   22 ar  
    25   24   25 1   
    26   25   26 1   
    27   26   27 1   
    28   26   28 1   
    29    1   29 1   
    30    1   30 1   
    31    1   31 1   
    32    2   32 1   
    33    5   33 1   
    34    5   34 1   
    35    6   35 1   
    36    6   36 1   
    37   10   37 1   
    38   13   38 1   
    39   14   39 1   
    40   14   40 1   
    41   18   41 1   
    42   19   42 1   
    43   21   43 1   
    44   22   44 1   
    45   23   45 1   
    46   23   46 1   
    47   24   47 1   
    48   25   48 1   
    49   25   49 1   
@<TRIPOS>SUBSTRUCTURE
     1 UNK         1 TEMP              0 ****  ****    0 ROOT
