@<TRIPOS>MOLECULE
FM0
   28    27     1     0     0
SMALL
bcc


@<TRIPOS>ATOM
      1 O           3.8570   -1.9620    0.7100 o         1 LIG     -0.883800
      2 O1         -5.1680   -1.8470   -0.4710 o         1 LIG     -0.968833
      3 O2         -1.7650    0.3250    2.0770 o         1 LIG     -0.932000
      4 O3          5.6270   -2.4780   -0.5080 o         1 LIG     -0.883800
      5 O4          3.5950    0.6070    1.2720 oh        1 LIG     -0.624800
      6 O5         -4.7460    0.4530   -1.6740 o         1 LIG     -0.968833
      7 O6         -5.0550    0.3150    0.8280 o         1 LIG     -0.968833
      8 O7         -1.9430    1.7580    0.0060 o         1 LIG     -0.932000
      9 F           4.5340    2.5840   -0.4930 f         1 LIG     -0.280300
     10 C           3.3340    1.9110   -0.7460 c3        1 LIG      0.122900
     11 C1          0.9250    0.5340    0.2120 c3        1 LIG      0.232400
     12 C2          2.0890   -0.2310   -0.4220 c3        1 LIG     -0.109400
     13 C3          4.5640   -0.2640   -0.7630 c3        1 LIG     -0.207400
     14 O8         -0.2980   -0.1550   -0.0520 os        1 LIG     -0.577200
     15 O9         -2.8920   -0.5770   -0.1200 os        1 LIG     -0.810800
     16 C4          4.6560   -1.6300   -0.1330 c         1 LIG      0.909600
     17 C5          3.3990    0.5070   -0.1400 c3        1 LIG      0.154800
     18 P          -4.4780   -0.3990   -0.3340 p5        1 LIG      1.469900
     19 P1         -1.7290    0.3680    0.4680 p5        1 LIG      1.582800
     20 H           2.8560    1.0960    1.6670 ho        1 LIG      0.425000
     21 H1          3.1830    1.8370   -1.8030 h1        1 LIG      0.049200
     22 H2          2.5220    2.4520   -0.3060 h1        1 LIG      0.049200
     23 H3          0.8770    1.5190   -0.2040 h1        1 LIG     -0.003800
     24 H4          1.0760    0.6000    1.2690 h1        1 LIG     -0.003800
     25 H5          1.9380   -0.2980   -1.4790 hc        1 LIG      0.043700
     26 H6          2.1380   -1.2150   -0.0050 hc        1 LIG      0.043700
     27 H7          4.4020   -0.3670   -1.8160 hc        1 LIG      0.035700
     28 H8          5.4760    0.2690   -0.5940 hc        1 LIG      0.035700
@<TRIPOS>BOND
     1    1   16 1   
     2    5   17 1   
     3    7   18 1   
     4    8   19 1   
     5    9   10 1   
     6   10   17 1   
     7   11   12 1   
     8   11   14 1   
     9   13   16 1   
    10   15   18 1   
    11   16    4 1   
    12   17   12 1   
    13   17   13 1   
    14   18    2 1   
    15   18    6 1   
    16   19    3 1   
    17   19   14 1   
    18   19   15 1   
    19    5   20 1   
    20   10   21 1   
    21   10   22 1   
    22   11   23 1   
    23   11   24 1   
    24   12   25 1   
    25   12   26 1   
    26   13   27 1   
    27   13   28 1   
@<TRIPOS>SUBSTRUCTURE
     1 LIG         1 TEMP              0 ****  ****    0 ROOT
