@<TRIPOS>MOLECULE
MWB
   46    49     1     0     0
SMALL
bcc


@<TRIPOS>ATOM
      1 C          -3.8030   -0.9460    0.2040 C.a       1 LIG      0.316100
      2 C1         -1.2640   -1.8630   -0.4130 C.a       1 LIG     -0.004400
      3 C2         -3.5950   -2.2960   -0.0480 C.a       1 LIG     -0.170750
      4 C3         -2.7390   -0.0560    0.1470 C.a       1 LIG     -0.170750
      5 C4         -1.4730   -0.5130   -0.1610 C.a       1 LIG     -0.036250
      6 C5         -2.3290   -2.7530   -0.3550 C.a       1 LIG     -0.036250
      7 C6          2.3360   -1.6780   -0.9360 C.a       1 LIG     -0.036250
      8 C7          2.1820   -0.3440    1.4910 C.a       1 LIG     -0.170750
      9 C8          1.1440   -1.6630   -0.2230 C.a       1 LIG     -0.004400
     10 C9          3.4470   -1.0280   -0.4370 C.a       1 LIG     -0.170750
     11 C10         3.3730   -0.3590    0.7770 C.a       1 LIG      0.316100
     12 C11         1.0690   -0.9890    0.9900 C.a       1 LIG     -0.036250
     13 N           0.0190   -2.3260   -0.7260 N.h       1 LIG     -0.297000
     14 C12         5.4270    0.8420    0.4210 C.2       1 LIG      0.663600
     15 N1          6.6030    1.3970    0.8460 N.h       1 LIG     -0.774200
     16 N2          5.2620    0.8640   -0.8620 N.2       1 LIG     -0.584900
     17 C13        -5.4630    0.7940    0.1530 C.2       1 LIG      0.663600
     18 N3         -4.7090    1.5760   -0.5490 N.2       1 LIG     -0.584900
     19 N4         -6.6660    1.3410    0.5060 N.h       1 LIG     -0.774200
     20 N5         -5.0890   -0.4810    0.5110 N.h       1 LIG     -0.564100
     21 N6          4.5010    0.3010    1.2830 N.h       1 LIG     -0.564100
     22 C14         7.3450    1.8720   -0.3340 C.3       1 LIG      0.125800
     23 C15         6.4160    1.5030   -1.5080 C.3       1 LIG      0.074300
     24 C16        -5.3820    2.8640   -0.7660 C.3       1 LIG      0.074300
     25 C17        -6.7320    2.7070   -0.0390 C.3       1 LIG      0.125800
     26 H          -4.3860   -2.9570   -0.0060 H         1 LIG      0.204250
     27 H1         -2.8940    0.9470    0.3350 H         1 LIG      0.204250
     28 H2         -0.6820    0.1480   -0.2040 H         1 LIG      0.177000
     29 H3         -2.1740   -3.7560   -0.5410 H         1 LIG      0.177000
     30 H4          2.3910   -2.1750   -1.8390 H         1 LIG      0.177000
     31 H5          2.1290    0.1490    2.3960 H         1 LIG      0.204250
     32 H6          4.3330   -1.0400   -0.9670 H         1 LIG      0.204250
     33 H7          0.1810   -0.9710    1.5160 H         1 LIG      0.177000
     34 H8          0.1300   -3.1180   -1.3000 H         1 LIG      0.484800
     35 H9          6.9020    1.4670    1.7810 H         1 LIG      0.409800
     36 H10        -7.3680    0.8970    1.0340 H         1 LIG      0.409800
     37 H11        -5.7250   -1.0660    0.9830 H         1 LIG      0.495800
     38 H12         4.6310    0.3780    2.2560 H         1 LIG      0.495800
     39 H13         8.2880    1.3740   -0.4200 H         1 LIG      0.092950
     40 H14         7.5740    2.9170   -0.2930 H         1 LIG      0.092950
     41 H15         6.9010    0.8240   -2.1780 H         1 LIG      0.106450
     42 H16         6.1400    2.3530   -2.0970 H         1 LIG      0.106450
     43 H17        -4.8140    3.6660   -0.3430 H         1 LIG      0.106450
     44 H18        -5.4980    3.0980   -1.8040 H         1 LIG      0.106450
     45 H19        -7.5490    2.8080   -0.7220 H         1 LIG      0.092950
     46 H20        -6.8910    3.4510    0.7130 H         1 LIG      0.092950
@<TRIPOS>BOND
     1    1    4 ar  
     2    2   13 1   
     3    2    5 ar  
     4    3    6 ar  
     5    3    1 ar  
     6    4    5 ar  
     7    6    2 ar  
     8    7    9 ar  
     9    8   12 ar  
    10    9   13 1   
    11    9   12 ar  
    12   10    7 ar  
    13   10   11 ar  
    14   11    8 ar  
    15   14   21 1   
    16   15   14 1   
    17   16   14 2   
    18   17   20 1   
    19   18   17 2   
    20   19   17 1   
    21   20    1 1   
    22   21   11 1   
    23   22   15 1   
    24   23   22 1   
    25   23   16 1   
    26   24   25 1   
    27   24   18 1   
    28   25   19 1   
    29    3   26 1   
    30    4   27 1   
    31    5   28 1   
    32    6   29 1   
    33    7   30 1   
    34    8   31 1   
    35   10   32 1   
    36   12   33 1   
    37   13   34 1   
    38   15   35 1   
    39   19   36 1   
    40   20   37 1   
    41   21   38 1   
    42   22   39 1   
    43   22   40 1   
    44   23   41 1   
    45   23   42 1   
    46   24   43 1   
    47   24   44 1   
    48   25   45 1   
    49   25   46 1   
@<TRIPOS>SUBSTRUCTURE
     1 LIG         1 TEMP              0 ****  ****    0 ROOT
