@<TRIPOS>MOLECULE
I6G
   27    28     1     0     0
SMALL
bcc


@<TRIPOS>ATOM
      1 O           0.1800    3.2860    0.0220 O.h       1 LIG     -0.469100
      2 C           0.6570    2.0130    0.0140 C.a       1 LIG      0.067800
      3 C1          2.0030    1.7850    0.0180 C.a       1 LIG     -0.192000
      4 C2          2.5100    0.4880    0.0100 C.a       1 LIG     -0.181000
      5 C3         -0.2360    0.9220    0.0080 C.a       1 LIG      0.298300
      6 C4          0.2800   -0.3980    0.0000 C.a       1 LIG      0.301300
      7 C5          1.6760   -0.5930   -0.0010 C.a       1 LIG      0.067800
      8 O1          2.1900   -1.8510   -0.0090 O.2       1 LIG     -0.297900
      9 C6          3.6140   -1.9710   -0.0050 C.3       1 LIG      0.108700
     10 N          -0.5620   -1.4360   -0.0050 N.b       1 LIG     -0.608000
     11 C7         -1.8590   -1.2230   -0.0020 C.a       1 LIG      0.313300
     12 C8         -2.8070   -2.3940   -0.0080 C.3       1 LIG     -0.149400
     13 C9         -2.3670    0.0770    0.0050 C.a       1 LIG      0.312300
     14 N1         -1.5600    1.1130    0.0100 N.b       1 LIG     -0.606000
     15 C10        -3.8580    0.2940    0.0080 C.3       1 LIG     -0.149400
     16 H           0.7750    4.0090    0.0260 H         1 LIG      0.415000
     17 H1          2.6540    2.5860    0.0270 H         1 LIG      0.138000
     18 H2          3.5320    0.3420    0.0120 H         1 LIG      0.144000
     19 H3          3.8850   -3.0060   -0.0120 H         1 LIG      0.045700
     20 H4          4.0090   -1.5050    0.8740 H         1 LIG      0.045700
     21 H5          4.0150   -1.4920   -0.8740 H         1 LIG      0.045700
     22 H6         -2.2470   -3.3060   -0.0130 H         1 LIG      0.058367
     23 H7         -3.4240   -2.3490   -0.8810 H         1 LIG      0.058367
     24 H8         -3.4230   -2.3580    0.8660 H         1 LIG      0.058367
     25 H9         -4.3560   -0.6530    0.0030 H         1 LIG      0.058367
     26 H10        -4.1390    0.8500   -0.8620 H         1 LIG      0.058367
     27 H11        -4.1370    0.8400    0.8850 H         1 LIG      0.058367
@<TRIPOS>BOND
     1    1    2 1   
     2    2    3 ar  
     3    2    5 ar  
     4    3    4 ar  
     5    4    7 ar  
     6    5    6 ar  
     7    5   14 ar  
     8    6    7 ar  
     9    6   10 ar  
    10    7    8 1   
    11    8    9 1   
    12   10   11 ar  
    13   11   12 1   
    14   11   13 ar  
    15   13   14 ar  
    16   13   15 1   
    17    1   16 1   
    18    3   17 1   
    19    4   18 1   
    20    9   19 1   
    21    9   20 1   
    22    9   21 1   
    23   12   22 1   
    24   12   23 1   
    25   12   24 1   
    26   15   25 1   
    27   15   26 1   
    28   15   27 1   
@<TRIPOS>SUBSTRUCTURE
     1 LIG         1 TEMP              0 ****  ****    0 ROOT
