@<TRIPOS>MOLECULE
CBU
   24    24     1     0     0
SMALL
bcc


@<TRIPOS>ATOM
      1 C           0.7300   -1.0610   -0.1390 C.3       1 LIG      0.075100
      2 C1         -0.7710   -1.0400    0.1540 C.3       1 LIG      0.075100
      3 C2         -1.3940    0.2120   -0.4660 C.3       1 LIG      0.075100
      4 C3         -0.7400    1.4580    0.1340 C.3       1 LIG      0.075100
      5 C4          0.7620    1.4370   -0.1590 C.3       1 LIG      0.075100
      6 C5          1.3850    0.1850    0.4610 C.3       1 LIG      0.075100
      7 O           1.3120   -2.2310    0.4400 O.h       1 LIG     -0.569800
      8 O1         -1.3820   -2.2040   -0.4070 O.h       1 LIG     -0.569800
      9 O2         -2.7970    0.2320   -0.1930 O.h       1 LIG     -0.569800
     10 O3         -0.9500    1.4720    1.5470 O.h       1 LIG     -0.569800
     11 O4          2.7870    0.1650    0.1880 O.h       1 LIG     -0.569800
     12 O5          0.9710    1.4230   -1.5730 O.h       1 LIG     -0.569800
     13 H           0.8860   -1.0710   -1.1980 H         1 LIG      0.087033
     14 H1         -0.9280   -1.0300    1.2120 H         1 LIG      0.087033
     15 H2         -1.2370    0.2010   -1.5240 H         1 LIG      0.087033
     16 H3         -1.1750    2.3340   -0.3000 H         1 LIG      0.087033
     17 H4          1.2200    2.3080    0.2610 H         1 LIG      0.087033
     18 H5          1.2280    0.1960    1.5190 H         1 LIG      0.087033
     19 H6          1.1700   -2.2220    1.3990 H         1 LIG      0.407667
     20 H7         -1.2400   -2.2130   -1.3670 H         1 LIG      0.407667
     21 H8         -2.9400    0.2420    0.7660 H         1 LIG      0.407667
     22 H9         -0.5550    0.6780    1.9400 H         1 LIG      0.407667
     23 H10         2.9290    0.1550   -0.7710 H         1 LIG      0.407667
     24 H11         0.5560    0.6330   -1.9530 H         1 LIG      0.407667
@<TRIPOS>BOND
     1    1    2 1   
     2    1    6 1   
     3    1    7 1   
     4    2    3 1   
     5    2    8 1   
     6    3    4 1   
     7    3    9 1   
     8    4    5 1   
     9    4   10 1   
    10    5    6 1   
    11    5   12 1   
    12    6   11 1   
    13    1   13 1   
    14    2   14 1   
    15    3   15 1   
    16    4   16 1   
    17    5   17 1   
    18    6   18 1   
    19    7   19 1   
    20    8   20 1   
    21    9   21 1   
    22   10   22 1   
    23   11   23 1   
    24   12   24 1   
@<TRIPOS>SUBSTRUCTURE
     1 LIG         1 TEMP              0 ****  ****    0 ROOT
