@<TRIPOS>MOLECULE
655
   45    48     1     0     0
SMALL
bcc


@<TRIPOS>ATOM
      1 C           5.1730    0.3600   -0.0840 C.a       1 LIG     -0.284900
      2 C1          5.2750   -0.9320   -0.6130 C.a       1 LIG     -0.111000
      3 C2          4.1640   -1.7140   -0.7500 C.a       1 LIG     -0.155000
      4 C3          2.9190   -1.2320   -0.3630 C.a       1 LIG      0.024000
      5 C4          2.7980    0.0650    0.1710 C.a       1 LIG     -0.009000
      6 C5          3.9370    0.8580    0.3140 C.a       1 LIG     -0.111000
      7 C6          6.3840    1.1950    0.0590 C.e       1 LIG      0.529400
      8 N           6.2900    2.4250    0.5620 N.h       1 LIG     -0.500600
      9 N1          7.5700    0.7180   -0.3160 N.h       1 LIG     -0.484700
     10 N2          1.6460   -1.7630   -0.3750 N.a       1 LIG     -0.281600
     11 N3          1.4860    0.2600    0.4540 N.c       1 LIG     -0.322600
     12 C7          0.8030   -0.8120    0.1350 C.c       1 LIG      0.321500
     13 C8         -0.6560   -0.9700    0.3000 C.d       1 LIG     -0.320000
     14 C9         -1.1840   -2.1850    0.7430 C.d       1 LIG     -0.067000
     15 C10        -2.5470   -2.3290    0.8960 C.c       1 LIG     -0.213000
     16 C11        -3.3980   -1.2740    0.6120 C.c       1 LIG     -0.172000
     17 C12        -2.8880   -0.0640    0.1720 C.d       1 LIG      0.007100
     18 O          -3.7290    0.9680   -0.1050 O.2       1 LIG     -0.305900
     19 C13        -1.5150    0.0970    0.0180 C.        1 LIG      0.562100
     20 O1         -1.0110    1.2830   -0.4140 O.3       1 LIG     -0.589100
     21 C14        -5.9280    1.7860    0.5350 C.3       1 LIG     -0.095400
     22 C15        -5.0360    0.5550    0.2980 C.3       1 LIG      0.137100
     23 C16        -5.7030   -0.2620   -0.8270 C.3       1 LIG     -0.095400
     24 C17        -7.1920    0.1610   -0.7730 C.3       1 LIG     -0.076400
     25 C18        -7.1060    1.6740   -0.4550 C.3       1 LIG     -0.076400
     26 H           6.1970   -1.2960   -0.9010 H         1 LIG      0.117000
     27 H1          4.2490   -2.6650   -1.1420 H         1 LIG      0.142000
     28 H2          3.8630    1.8070    0.7120 H         1 LIG      0.144000
     29 H3          5.4140    2.7780    0.8390 H         1 LIG      0.312200
     30 H4          7.0970    2.9810    0.6560 H         1 LIG      0.312200
     31 H5          7.6400   -0.1910   -0.6880 H         1 LIG      0.312200
     32 H6          8.3770    1.2740   -0.2210 H         1 LIG      0.312200
     33 H7          1.3910   -2.6600   -0.6920 H         1 LIG      0.308700
     34 H8         -0.5540   -2.9740    0.9560 H         1 LIG      0.085000
     35 H9         -2.9350   -3.2280    1.2240 H         1 LIG      0.113000
     36 H10        -4.4170   -1.3900    0.7290 H         1 LIG      0.119000
     37 H11        -5.3750    2.6830    0.3510 H         1 LIG      0.054950
     38 H12        -6.2760    1.8210    1.5460 H         1 LIG      0.054950
     39 H13        -4.9350   -0.0270    1.1900 H         1 LIG      0.047700
     40 H14        -5.6000   -1.3120   -0.6460 H         1 LIG      0.054950
     41 H15        -5.2600   -0.0800   -1.7840 H         1 LIG      0.054950
     42 H16        -7.7150   -0.3660   -0.0020 H         1 LIG      0.036450
     43 H17        -7.7270   -0.0530   -1.6750 H         1 LIG      0.036450
     44 H18        -6.9100    2.2380   -1.3430 H         1 LIG      0.036450
     45 H19        -8.0190    2.0610   -0.0520 H         1 LIG      0.036450
@<TRIPOS>BOND
     1    1    2 ar  
     2    1    6 ar  
     3    1    7 1   
     4    2    3 ar  
     5    3    4 ar  
     6    4    5 ar  
     7    4   10 2   
     8    5    6 ar  
     9    5   11 2   
    10    7    8 2   
    11    7    9 1   
    12   10   12 1   
    13   11   12 1   
    14   12   13 2   
    15   13   14 ar  
    16   13   19 ar  
    17   14   15 ar  
    18   15   16 ar  
    19   16   17 ar  
    20   17   18 1   
    21   17   19 ar  
    22   18   22 1   
    23   19   20 2   
    24   21   22 1   
    25   21   25 1   
    26   22   23 1   
    27   23   24 1   
    28   24   25 1   
    29    2   26 1   
    30    3   27 1   
    31    6   28 1   
    32    8   29 1   
    33    8   30 1   
    34    9   31 1   
    35    9   32 1   
    36   10   33 1   
    37   14   34 1   
    38   15   35 1   
    39   16   36 1   
    40   21   37 1   
    41   21   38 1   
    42   22   39 1   
    43   23   40 1   
    44   23   41 1   
    45   24   42 1   
    46   24   43 1   
    47   25   44 1   
    48   25   45 1   
@<TRIPOS>SUBSTRUCTURE
     1 LIG         1 TEMP              0 ****  ****    0 ROOT
