@<TRIPOS>MOLECULE
1C1
   48    50     1     0     0
SMALL
bcc


@<TRIPOS>ATOM
      1 N          -4.9380    4.0960   -1.0000 N.h       1 LIG     -0.522100
      2 C          -5.3430    3.6010    0.1680 C.z       1 LIG      0.521300
      3 N1         -4.8770    2.3880    0.5950 N.h       1 LIG     -0.381200
      4 C1         -3.9310    1.6340   -0.2330 C.3       1 LIG      0.007300
      5 C2         -3.5710    0.3230    0.4700 C.3       1 LIG     -0.105700
      6 C3         -4.7990   -0.6090    0.5550 C.3       1 LIG     -0.039100
      7 C4         -4.2460   -2.0080    0.3910 C.a       1 LIG     -0.086300
      8 C5         -4.8100   -3.2370    0.6890 C.a       1 LIG     -0.108000
      9 C6         -4.1070   -4.4010    0.4510 C.a       1 LIG     -0.105000
     10 C7         -2.8350   -4.3410   -0.0890 C.a       1 LIG     -0.118000
     11 C8         -2.2710   -3.1170   -0.3870 C.a       1 LIG     -0.093000
     12 C9         -2.9740   -1.9480   -0.1480 C.a       1 LIG     -0.127300
     13 C10        -2.5860   -0.5040   -0.3830 C.3       1 LIG      0.168000
     14 N2         -1.2090   -0.2690    0.0590 N.        1 LIG     -0.531900
     15 C11        -0.1850   -0.4540   -0.7970 C.        1 LIG      0.594100
     16 O          -0.4040   -0.8140   -1.9350 O.3       1 LIG     -0.642100
     17 C12         1.2180   -0.2140   -0.3460 C.        1 LIG      0.604100
     18 O1          1.4360    0.1460    0.7920 O.3       1 LIG     -0.564100
     19 N3          2.2420   -0.3990   -1.2020 N.        1 LIG     -0.435100
     20 C13         3.5460   -0.0830   -0.8110 C.a       1 LIG      0.072600
     21 C14         3.9460   -0.2850    0.5030 C.a       1 LIG     -0.186000
     22 C15         5.2370    0.0280    0.8880 C.a       1 LIG      0.164900
     23 F           5.6280   -0.1680    2.1660 F.        1 LIG     -0.113900
     24 C16         6.1300    0.5440   -0.0390 C.a       1 LIG     -0.039600
     25 Cl          7.7510    0.9360    0.4450 C.l       1 LIG     -0.045400
     26 C17         5.7320    0.7460   -1.3480 C.a       1 LIG     -0.076000
     27 C18         4.4460    0.4280   -1.7380 C.a       1 LIG     -0.178000
     28 N4         -6.2030    4.2860    0.9200 N.h       1 LIG     -0.506200
     29 H          -4.3020    3.5890   -1.5560 H         1 LIG      0.327200
     30 H1         -5.2740    4.9680   -1.3080 H         1 LIG      0.327200
     31 H2         -5.1770    2.0210    1.4580 H         1 LIG      0.321700
     32 H3         -3.0450    2.2150   -0.3810 H         1 LIG      0.087700
     33 H4         -4.3790    1.4190   -1.1810 H         1 LIG      0.087700
     34 H5         -3.1790    0.6050    1.4250 H         1 LIG      0.081700
     35 H6         -5.4940   -0.3860   -0.2270 H         1 LIG      0.059700
     36 H7         -5.3270   -0.4930    1.4790 H         1 LIG      0.059700
     37 H8         -5.7600   -3.2830    1.0910 H         1 LIG      0.145000
     38 H9         -4.5300   -5.3150    0.6760 H         1 LIG      0.150000
     39 H10        -2.3080   -5.2100   -0.2690 H         1 LIG      0.151000
     40 H11        -1.3220   -3.0730   -0.7890 H         1 LIG      0.147000
     41 H12        -2.6320   -0.2400   -1.4190 H         1 LIG      0.083700
     42 H13        -1.0320    0.0240    0.9820 H         1 LIG      0.353500
     43 H14         2.0710   -0.7570   -2.1030 H         1 LIG      0.342500
     44 H15         3.2800   -0.6680    1.1920 H         1 LIG      0.189000
     45 H16         6.3970    1.1350   -2.0340 H         1 LIG      0.161000
     46 H17         4.1540    0.5700   -2.7170 H         1 LIG      0.142000
     47 H18        -6.5020    3.9200    1.7840 H         1 LIG      0.327200
     48 H19        -6.5390    5.1590    0.6120 H         1 LIG      0.327200
@<TRIPOS>BOND
     1    2    3 1   
     2    2    1 2   
     3    3    4 1   
     4    4    5 1   
     5    5    6 1   
     6    5   13 1   
     7    6    7 1   
     8    7   12 ar  
     9    7    8 ar  
    10    8    9 ar  
    11    9   10 ar  
    12   11   10 ar  
    13   12   11 ar  
    14   13   14 1   
    15   13   12 1   
    16   15   17 1   
    17   15   14 1   
    18   16   15 2   
    19   17   18 2   
    20   19   17 1   
    21   20   19 1   
    22   20   21 ar  
    23   21   22 ar  
    24   22   23 1   
    25   24   25 1   
    26   24   22 ar  
    27   26   24 ar  
    28   27   26 ar  
    29   27   20 ar  
    30   28    2 1   
    31    1   29 1   
    32    1   30 1   
    33    3   31 1   
    34    4   32 1   
    35    4   33 1   
    36    5   34 1   
    37    6   35 1   
    38    6   36 1   
    39    8   37 1   
    40    9   38 1   
    41   10   39 1   
    42   11   40 1   
    43   13   41 1   
    44   14   42 1   
    45   19   43 1   
    46   21   44 1   
    47   26   45 1   
    48   27   46 1   
    49   28   47 1   
    50   28   48 1   
@<TRIPOS>SUBSTRUCTURE
     1 LIG         1 TEMP              0 ****  ****    0 ROOT
