@<TRIPOS>MOLECULE
DJD
   32    33     1     0     0
SMALL
bcc


@<TRIPOS>ATOM
      1 N          -3.4600   -1.3800    0.9900 N.4       1 LIG     -0.835600
      2 CA         -3.7530   -0.0290    0.4930 C.3       1 LIG     -0.071500
      3 C          -5.2410    0.1290    0.3150 C.        1 LIG      0.937600
      4 OXT        -5.9450   -0.8490    0.2190 O.3       1 LIG     -0.753800
      5 C1         -3.0530    0.1820   -0.8510 C.3       1 LIG     -0.055100
      6 C2         -1.5600    0.1460   -0.6520 C.a       1 LIG     -0.086300
      7 C3         -0.8810   -1.0550   -0.7480 C.a       1 LIG     -0.152000
      8 C4         -0.8730    1.3150   -0.3780 C.a       1 LIG     -0.152000
      9 C5          0.4870   -1.0940   -0.5660 C.a       1 LIG     -0.078000
     10 C6          0.4940    1.2880   -0.1940 C.a       1 LIG     -0.078000
     11 C7          1.1830    0.0800   -0.2840 C.p       1 LIG     -0.141500
     12 C8          6.7370   -0.0560    0.4710 C.3       1 LIG     -0.134400
     13 C9          5.2440   -0.0200    0.2710 C.a       1 LIG      0.522300
     14 C10         2.6530    0.0450   -0.0870 C.p       1 LIG      0.560500
     15 N1          4.5940    1.1290    0.3620 N.b       1 LIG     -0.295500
     16 N2          3.3160    1.1650    0.1860 N.b       1 LIG     -0.289000
     17 N3          4.5880   -1.1360   -0.0010 N.b       1 LIG     -0.295500
     18 N4          3.3100   -1.1090   -0.1740 N.b       1 LIG     -0.289000
     19 O          -5.7840    1.3550    0.2630 O.3       1 LIG     -0.753800
     20 H1         -2.4530   -1.4870    1.1110 H         1 LIG      0.445800
     21 H2         -3.7970   -2.0700    0.3190 H         1 LIG      0.445800
     22 H3         -3.9260   -1.5210    1.8860 H         1 LIG      0.445800
     23 HA         -3.4000    0.6950    1.1970 H         1 LIG      0.090700
     24 H          -3.3360    1.1310   -1.2550 H         1 LIG      0.096200
     25 H4         -3.3410   -0.5950   -1.5280 H         1 LIG      0.096200
     26 H5         -1.3980   -1.9240   -0.9560 H         1 LIG      0.144000
     27 H6         -1.3840    2.2090   -0.3110 H         1 LIG      0.144000
     28 H7          0.9930   -1.9900   -0.6390 H         1 LIG      0.156500
     29 H8          1.0060    2.1610    0.0100 H         1 LIG      0.156500
     30 H9          7.0870   -1.0610    0.3610 H         1 LIG      0.073700
     31 H10         6.9740    0.2990    1.4520 H         1 LIG      0.073700
     32 H11         7.2100    0.5680   -0.2580 H         1 LIG      0.073700
@<TRIPOS>BOND
     1    2    1 1   
     2    2    5 1   
     3    3    2 1   
     4    3   19 1   
     5    4    3 1   
     6    5    6 1   
     7    6    7 ar  
     8    7    9 ar  
     9    8    6 ar  
    10    8   10 ar  
    11   10   11 ar  
    12   11    9 ar  
    13   11   14 1   
    14   13   17 ar  
    15   13   12 1   
    16   14   18 ar  
    17   15   13 ar  
    18   16   15 ar  
    19   16   14 ar  
    20   18   17 ar  
    21    1   20 1   
    22    1   21 1   
    23    1   22 1   
    24    2   23 1   
    25    5   24 1   
    26    5   25 1   
    27    7   26 1   
    28    8   27 1   
    29    9   28 1   
    30   10   29 1   
    31   12   30 1   
    32   12   31 1   
    33   12   32 1   
@<TRIPOS>SUBSTRUCTURE
     1 LIG         1 TEMP              0 ****  ****    0 ROOT
