@<TRIPOS>MOLECULE
3J4
   44    45     1     0     0
SMALL
bcc


@<TRIPOS>ATOM
      1 C          -3.8620   -1.4850   -0.5630 C.3       1 LIG      0.092100
      2 C1         -2.3590   -1.6480   -0.8020 C.3       1 LIG      0.074100
      3 C2         -1.7490   -2.4750    0.3320 C.3       1 LIG      0.098400
      4 O           3.9490    0.5310    0.3910 O.2       1 LIG     -0.589500
      5 S           4.7520   -0.7610    0.3360 S.6       1 LIG      1.727400
      6 O1          5.9600   -0.5130    1.0420 O.3       1 LIG     -0.653800
      7 O2          3.8520   -1.8060    0.6780 O.3       1 LIG     -0.653800
      8 N           5.1760   -1.0070   -1.2460 N.3       1 LIG     -1.030700
      9 O3         -3.9250    1.4130   -0.3920 O.h       1 LIG     -0.609800
     10 C3         -3.3590    0.6300    0.6600 C.3       1 LIG      0.121100
     11 C4         -4.0840   -0.7170    0.7440 C.3       1 LIG      0.126100
     12 O4         -5.4820   -0.4960    0.9370 O.h       1 LIG     -0.581800
     13 O5         -4.4740   -2.7730   -0.4690 O.h       1 LIG     -0.578800
     14 O6         -0.3710   -2.7260    0.0510 O.h       1 LIG     -0.596800
     15 O7         -1.7410   -0.3600   -0.8370 O.2       1 LIG     -0.377600
     16 C5         -1.8750    0.3850    0.3750 C.3       1 LIG     -0.074100
     17 S1         -1.0210    1.9760    0.2040 S.6       1 LIG      1.453900
     18 O8         -1.5260    2.6960   -0.9130 O.3       1 LIG     -0.644300
     19 O9         -0.8720    2.6010    1.4720 O.3       1 LIG     -0.644300
     20 N1          0.5240    1.5710   -0.2350 N.3       1 LIG     -0.823500
     21 C6          1.6400    1.3100    0.6920 C.3       1 LIG      0.209800
     22 C7          1.0070    1.4070   -1.6140 C.3       1 LIG      0.230800
     23 C8          2.4950    1.0030   -1.5330 C.3       1 LIG     -0.108400
     24 C9          2.6150    0.4080   -0.1060 C.3       1 LIG      0.201100
     25 H          -4.2980   -0.9450   -1.3770 H         1 LIG      0.105700
     26 H1         -2.1980   -2.1470   -1.7340 H         1 LIG      0.090700
     27 H2         -2.2710   -3.4050    0.4160 H         1 LIG      0.054200
     28 H3         -1.8330   -1.9350    1.2520 H         1 LIG      0.054200
     29 H4          5.8250   -0.2780   -1.5410 H         1 LIG      0.459800
     30 H5          4.3410   -0.9750   -1.8310 H         1 LIG      0.459800
     31 H6         -3.4650    2.2650   -0.4440 H         1 LIG      0.444000
     32 H7         -3.4660    1.1540    1.5870 H         1 LIG      0.069700
     33 H8         -3.7000   -1.2840    1.5660 H         1 LIG      0.077700
     34 H9         -5.8340    0.0180    0.1930 H         1 LIG      0.425000
     35 H10        -4.0800   -3.2650    0.2680 H         1 LIG      0.403000
     36 H11        -0.2950   -3.2160   -0.7830 H         1 LIG      0.407000
     37 H12        -1.4420   -0.1660    1.1830 H         1 LIG      0.104700
     38 H13         1.2920    0.8050    1.5690 H         1 LIG      0.076200
     39 H14         2.1070    2.2130    1.0260 H         1 LIG      0.076200
     40 H15         0.9060    2.3280   -2.1500 H         1 LIG      0.059700
     41 H16         0.4390    0.6610   -2.1290 H         1 LIG      0.059700
     42 H17         3.1320    1.8550   -1.6500 H         1 LIG      0.063700
     43 H18         2.7900    0.3200   -2.3020 H         1 LIG      0.063700
     44 H19         2.3900   -0.6360   -0.0490 H         1 LIG      0.076700
@<TRIPOS>BOND
     1    1   13 1   
     2    1    2 1   
     3    2   15 1   
     4    2    3 1   
     5    3   14 1   
     6    4    5 1   
     7    5    6 2   
     8    5    7 2   
     9    8    5 1   
    10    9   10 1   
    11   10   16 1   
    12   11    1 1   
    13   11   10 1   
    14   12   11 1   
    15   16   17 1   
    16   16   15 1   
    17   17   20 1   
    18   18   17 2   
    19   19   17 2   
    20   20   22 1   
    21   20   21 1   
    22   21   24 1   
    23   22   23 1   
    24   23   24 1   
    25   24    4 1   
    26    1   25 1   
    27    2   26 1   
    28    3   27 1   
    29    3   28 1   
    30    8   29 1   
    31    8   30 1   
    32    9   31 1   
    33   10   32 1   
    34   11   33 1   
    35   12   34 1   
    36   13   35 1   
    37   14   36 1   
    38   16   37 1   
    39   21   38 1   
    40   21   39 1   
    41   22   40 1   
    42   22   41 1   
    43   23   42 1   
    44   23   43 1   
    45   24   44 1   
@<TRIPOS>SUBSTRUCTURE
     1 LIG         1 TEMP              0 ****  ****    0 ROOT
