@<TRIPOS>MOLECULE
PLM
   49    48     1     0     0
SMALL
bcc


@<TRIPOS>ATOM
      1 C           0.1420    0.0010   -8.1900 c         1 LIG      0.907600
      2 O          -0.4490   -0.0040   -9.3950 o         1 LIG     -0.854800
      3 O1          1.3470    0.0140   -8.1090 o         1 LIG     -0.854800
      4 C1         -0.6970   -0.0070   -6.9390 c3        1 LIG     -0.193400
      5 C2          0.2150    0.0020   -5.7110 c3        1 LIG     -0.062400
      6 C3         -0.6360   -0.0070   -4.4410 c3        1 LIG     -0.079400
      7 C4          0.2760    0.0030   -3.2140 c3        1 LIG     -0.078400
      8 C5         -0.5760   -0.0060   -1.9430 c3        1 LIG     -0.078400
      9 C6          0.3370    0.0030   -0.7160 c3        1 LIG     -0.079400
     10 C7         -0.5150   -0.0050    0.5530 c3        1 LIG     -0.078400
     11 C8          0.3980    0.0040    1.7810 c3        1 LIG     -0.079400
     12 C9         -0.4540   -0.0050    3.0510 c3        1 LIG     -0.078400
     13 C10         0.4590    0.0050    4.2790 c3        1 LIG     -0.079400
     14 C11        -0.3930   -0.0040    5.5490 c3        1 LIG     -0.078400
     15 C12         0.5200    0.0050    6.7760 c3        1 LIG     -0.079400
     16 C13        -0.3320   -0.0030    8.0470 c3        1 LIG     -0.079400
     17 C14         0.5800    0.0060    9.2740 c3        1 LIG     -0.080400
     18 C15        -0.2710   -0.0030   10.5440 c3        1 LIG     -0.092100
     19 H          -1.3060   -0.8870   -6.9240 hc        1 LIG      0.018700
     20 H1         -1.3220    0.8610   -6.9240 hc        1 LIG      0.018700
     21 H2          0.8240    0.8820   -5.7260 hc        1 LIG      0.044700
     22 H3          0.8400   -0.8660   -5.7260 hc        1 LIG      0.044700
     23 H4         -1.2440   -0.8870   -4.4260 hc        1 LIG      0.024700
     24 H5         -1.2620    0.8610   -4.4260 hc        1 LIG      0.024700
     25 H6          0.8840    0.8830   -3.2290 hc        1 LIG      0.036700
     26 H7          0.9020   -0.8640   -3.2290 hc        1 LIG      0.036700
     27 H8         -1.1850   -0.8860   -1.9280 hc        1 LIG      0.033700
     28 H9         -1.2020    0.8620   -1.9280 hc        1 LIG      0.033700
     29 H10         0.9460    0.8830   -0.7310 hc        1 LIG      0.037700
     30 H11         0.9630   -0.8650   -0.7310 hc        1 LIG      0.037700
     31 H12        -1.1240   -0.8850    0.5680 hc        1 LIG      0.036700
     32 H13        -1.1410    0.8630    0.5680 hc        1 LIG      0.036700
     33 H14         1.0070    0.8840    1.7660 hc        1 LIG      0.038700
     34 H15         1.0240   -0.8640    1.7660 hc        1 LIG      0.038700
     35 H16        -1.0620   -0.8850    3.0660 hc        1 LIG      0.037700
     36 H17        -1.0810    0.8620    3.0660 hc        1 LIG      0.037700
     37 H18         1.0670    0.8850    4.2640 hc        1 LIG      0.038700
     38 H19         1.0860   -0.8620    4.2640 hc        1 LIG      0.038700
     39 H20        -1.0020   -0.8840    5.5640 hc        1 LIG      0.038700
     40 H21        -1.0190    0.8630    5.5640 hc        1 LIG      0.038700
     41 H22         1.1290    0.8850    6.7610 hc        1 LIG      0.038700
     42 H23         1.1460   -0.8630    6.7610 hc        1 LIG      0.038700
     43 H24        -0.9410   -0.8830    8.0620 hc        1 LIG      0.038700
     44 H25        -0.9570    0.8650    8.0620 hc        1 LIG      0.038700
     45 H26         1.1890    0.8860    9.2590 hc        1 LIG      0.037700
     46 H27         1.2060   -0.8620    9.2590 hc        1 LIG      0.037700
     47 H28        -0.8970    0.8650   10.5600 hc        1 LIG      0.031033
     48 H29         0.3680    0.0030   11.4020 hc        1 LIG      0.031033
     49 H30        -0.8800   -0.8830   10.5590 hc        1 LIG      0.031033
@<TRIPOS>BOND
     1    1    2 1   
     2    1    3 1   
     3    1    4 1   
     4    4    5 1   
     5    5    6 1   
     6    6    7 1   
     7    7    8 1   
     8    8    9 1   
     9    9   10 1   
    10   10   11 1   
    11   11   12 1   
    12   12   13 1   
    13   13   14 1   
    14   14   15 1   
    15   15   16 1   
    16   16   17 1   
    17   17   18 1   
    18    4   19 1   
    19    4   20 1   
    20    5   21 1   
    21    5   22 1   
    22    6   23 1   
    23    6   24 1   
    24    7   25 1   
    25    7   26 1   
    26    8   27 1   
    27    8   28 1   
    28    9   29 1   
    29    9   30 1   
    30   10   31 1   
    31   10   32 1   
    32   11   33 1   
    33   11   34 1   
    34   12   35 1   
    35   12   36 1   
    36   13   37 1   
    37   13   38 1   
    38   14   39 1   
    39   14   40 1   
    40   15   41 1   
    41   15   42 1   
    42   16   43 1   
    43   16   44 1   
    44   17   45 1   
    45   17   46 1   
    46   18   47 1   
    47   18   48 1   
    48   18   49 1   
@<TRIPOS>SUBSTRUCTURE
     1 LIG         1 TEMP              0 ****  ****    0 ROOT
