@<TRIPOS>MOLECULE
3AD
   31    33     1     0     0
SMALL
bcc


@<TRIPOS>ATOM
      1 O           1.7040   -1.0000   -4.7070 O.h       1 LIG     -0.590800
      2 C           0.7790    0.0690   -4.5040 C.3       1 LIG      0.119400
      3 C1         -0.1720   -0.2900   -3.3610 C.3       1 LIG      0.081100
      4 O1          0.5630   -0.4780   -2.1330 O.2       1 LIG     -0.422600
      5 C2         -1.1330    0.8830   -3.0700 C.3       1 LIG     -0.148400
      6 C3         -1.2950    0.8640   -1.5310 C.3       1 LIG      0.118100
      7 O2         -2.6600    0.6400   -1.1740 O.h       1 LIG     -0.574800
      8 C4         -0.4090   -0.3160   -1.0780 C.3       1 LIG      0.211800
      9 N           0.2580    0.0020    0.1860 N.a       1 LIG     -0.284000
     10 C5          1.4610    0.6280    0.3270 C.c       1 LIG      0.397700
     11 N1          1.7520    0.7500    1.5900 N.d       1 LIG     -0.534100
     12 C6          0.7550    0.2180    2.3370 C.a       1 LIG     -0.239200
     13 C7          0.5290    0.0590    3.7140 C.a       1 LIG      0.766200
     14 N2          1.4490    0.5180    4.6400 N.h       1 LIG     -0.960500
     15 N3         -0.5910   -0.5360    4.1070 N.b       1 LIG     -0.794000
     16 C8         -1.4750   -0.9770    3.2310 C.a       1 LIG      0.691900
     17 N4         -1.3030   -0.8560    1.9320 N.b       1 LIG     -0.735000
     18 C9         -0.2120   -0.2730    1.4440 C.a       1 LIG      0.475800
     19 H           2.3070   -0.7720   -5.4320 H         1 LIG      0.417000
     20 H1          0.2160    0.2280   -5.4000 H         1 LIG      0.050700
     21 H2          1.3140    0.9620   -4.2560 H         1 LIG      0.050700
     22 H3         -0.6930   -1.1750   -3.6600 H         1 LIG      0.085700
     23 H4         -2.0750    0.7310   -3.5530 H         1 LIG      0.073200
     24 H5         -0.7610    1.8190   -3.4330 H         1 LIG      0.073200
     25 H6         -1.0130    1.7890   -1.0720 H         1 LIG      0.105700
     26 H7         -2.9650   -0.1920   -1.5680 H         1 LIG      0.410000
     27 H8         -0.9780   -1.2070   -0.9130 H         1 LIG      0.131700
     28 H9          2.0530    0.9560   -0.4520 H         1 LIG      0.068800
     29 H10         2.2760    0.9580    4.3360 H         1 LIG      0.450800
     30 H11         1.2770    0.4050    5.6030 H         1 LIG      0.450800
     31 H12        -2.3330   -1.4340    3.5780 H         1 LIG      0.054100
@<TRIPOS>BOND
     1    1    2 1   
     2    2    3 1   
     3    3    4 1   
     4    3    5 1   
     5    4    8 1   
     6    5    6 1   
     7    6    7 1   
     8    6    8 1   
     9    8    9 1   
    10    9   10 1   
    11    9   18 1   
    12   10   11 2   
    13   11   12 1   
    14   12   13 ar  
    15   12   18 ar  
    16   13   14 1   
    17   13   15 ar  
    18   15   16 ar  
    19   16   17 ar  
    20   17   18 ar  
    21    1   19 1   
    22    2   20 1   
    23    2   21 1   
    24    3   22 1   
    25    5   23 1   
    26    5   24 1   
    27    6   25 1   
    28    7   26 1   
    29    8   27 1   
    30   10   28 1   
    31   14   29 1   
    32   14   30 1   
    33   16   31 1   
@<TRIPOS>SUBSTRUCTURE
     1 LIG         1 TEMP              0 ****  ****    0 ROOT
