@<TRIPOS>MOLECULE
ASL
   24    23     1     0     0
SMALL
bcc


@<TRIPOS>ATOM
      1 N1          2.3420   -0.0650   -1.7310 n4        1 <1>     -0.841600
      2 C1          2.4110    0.3240   -0.3160 c3        1 <1>     -0.041500
      3 C2          3.7130   -0.1530    0.2740 c         1 <1>      0.924600
      4 O1          4.3320   -1.0400   -0.2660 o         1 <1>     -0.787800
      5 C3          1.2450   -0.3090    0.4450 c3        1 <1>     -0.133400
      6 C4         -0.0550    0.2620   -0.0630 c         1 <1>      0.621100
      7 O2         -1.2190   -0.1500    0.4620 os        1 <1>     -0.452900
      8 O3         -0.0480    1.0900   -0.9430 o         1 <1>     -0.549000
      9 C5         -2.7820    1.7000    0.7230 c3        1 <1>     -0.089100
     10 C6         -2.4310    0.4430   -0.0750 c3        1 <1>      0.016100
     11 C7         -3.5620   -0.5480    0.0250 c         1 <1>      0.921600
     12 O4         -3.3900   -1.6060    0.5820 o         1 <1>     -0.832800
     13 O5         -4.7600   -0.2550   -0.5040 o         1 <1>     -0.832800
     14 O6          4.1870    0.4070    1.3980 o         1 <1>     -0.787800
     15 H1          3.1200    0.3570   -2.2380 hn        1 <1>      0.461800
     16 H2          1.4610    0.2580   -2.1300 hn        1 <1>      0.461800
     17 H3          2.3980   -1.0810   -1.8080 hn        1 <1>      0.461800
     18 H4          2.3520    1.3890   -0.2370 hx        1 <1>      0.088700
     19 H5          1.3440   -0.0980    1.4890 hc        1 <1>      0.099200
     20 H6          1.2530   -1.3680    0.2940 hc        1 <1>      0.099200
     21 H7         -1.9790    2.4040    0.6520 hc        1 <1>      0.039033
     22 H8         -2.9380    1.4390    1.7490 hc        1 <1>      0.039033
     23 H9         -3.6750    2.1370    0.3260 hc        1 <1>      0.039033
     24 H10        -2.2750    0.7050   -1.1010 h1        1 <1>      0.075700
@<TRIPOS>BOND
     1    1    2 1   
     2    2    3 1   
     3    2    5 1   
     4    3   14 1   
     5    4    3 1   
     6    5    6 1   
     7    6    7 1   
     8    6    8 2   
     9    7   10 1   
    10   10    9 1   
    11   11   10 1   
    12   12   11 1   
    13   13   11 1   
    14    1   15 1   
    15    1   16 1   
    16    1   17 1   
    17    2   18 1   
    18    5   19 1   
    19    5   20 1   
    20    9   21 1   
    21    9   22 1   
    22    9   23 1   
    23   10   24 1   
@<TRIPOS>SUBSTRUCTURE
     1 <1>         1 TEMP              0 ****  ****    0 ROOT
