@<TRIPOS>MOLECULE
KSA
   56    63     1     0     0
SMALL
bcc


@<TRIPOS>ATOM
      1 O           0.8930    1.5230    4.6110 o         1 LIG     -0.537000
      2 C           1.3140    0.6500    3.8900 c         1 LIG      0.605100
      3 O1          2.0990   -0.3140    4.3930 os        1 LIG     -0.427900
      4 C1          2.4420   -0.3100    5.8040 c3        1 LIG      0.123700
      5 C2          0.9590    0.6460    2.4250 c3        1 LIG      0.093800
      6 O2          0.1330    1.7690    2.1130 oh        1 LIG     -0.549800
      7 C3          0.2400   -0.6660    2.0530 c3        1 LIG      0.253500
      8 O3          1.2250   -1.4660    1.3910 os        1 LIG     -0.400600
      9 C4         -0.2640   -1.3750    3.3110 c3        1 LIG     -0.117100
     10 N          -0.8660   -0.3630    1.1400 na        1 LIG     -0.095300
     11 C5         -0.7280   -0.2430   -0.2300 ca        1 LIG      0.015800
     12 C6          0.4300   -0.2390   -1.0130 ca        1 LIG     -0.033200
     13 N1          1.7620   -0.3290   -0.6230 na        1 LIG     -0.100300
     14 C7          2.1920   -0.6380    0.7430 c3        1 LIG      0.255800
     15 C8          2.2380    0.6660    1.5640 c3        1 LIG     -0.107400
     16 C9          2.5560   -0.1360   -1.7220 ca        1 LIG      0.014800
     17 C10         3.9440   -0.0930   -1.8450 ca        1 LIG     -0.172000
     18 C11         4.4610    0.0750   -3.1180 ca        1 LIG     -0.090000
     19 C12         3.6510    0.1980   -4.2330 ca        1 LIG     -0.167000
     20 C13         2.2700    0.1650   -4.1390 ca        1 LIG     -0.054000
     21 C14         1.7280   -0.0000   -2.8640 cp        1 LIG     -0.086000
     22 C15         0.3480   -0.0700   -2.3940 cp        1 LIG      0.035000
     23 C16        -0.9250    0.0120   -3.0050 ca        1 LIG     -0.138600
     24 C17        -1.3330    0.1220   -4.4140 c         1 LIG      0.719100
     25 O4         -0.5670    0.1430   -5.3580 o         1 LIG     -0.624500
     26 C18        -2.0720    0.0080   -2.2150 ca        1 LIG     -0.059300
     27 C19        -3.2410    0.1350   -3.1610 c3        1 LIG      0.130300
     28 N2         -2.6710    0.1970   -4.5110 n         1 LIG     -0.576900
     29 C20        -1.9850   -0.0880   -0.8300 cp        1 LIG     -0.042000
     30 C21        -2.9420   -0.0710    0.2760 cp        1 LIG     -0.071000
     31 C22        -2.1920   -0.2130    1.4680 ca        1 LIG      0.013800
     32 C23        -2.8260   -0.2000    2.7090 ca        1 LIG     -0.164000
     33 C24        -4.3290    0.0720    0.3020 ca        1 LIG     -0.077000
     34 C25        -4.9350    0.0790    1.5480 ca        1 LIG     -0.156000
     35 C26        -4.2030   -0.0500    2.7140 ca        1 LIG     -0.098000
     36 H           3.0710   -1.1480    6.0210 h1        1 LIG      0.056367
     37 H1          1.5480   -0.3740    6.3880 h1        1 LIG      0.056367
     38 H2          2.9600    0.5950    6.0430 h1        1 LIG      0.056367
     39 H3         -0.6670    1.7440    2.6610 ho        1 LIG      0.429000
     40 H4          0.5620   -1.5840    3.9580 hc        1 LIG      0.072033
     41 H5         -0.7420   -2.2920    3.0360 hc        1 LIG      0.072033
     42 H6         -0.9650   -0.7460    3.8190 hc        1 LIG      0.072033
     43 H7          3.1450   -1.1210    0.6890 h2        1 LIG      0.103700
     44 H8          3.1090    0.6880    2.1860 hc        1 LIG      0.099200
     45 H9          2.2850    1.5320    0.9370 hc        1 LIG      0.099200
     46 H10         4.5600   -0.1830   -1.0220 ha        1 LIG      0.133000
     47 H11         5.4850    0.1100   -3.2400 ha        1 LIG      0.132000
     48 H12         4.0880    0.3180   -5.1600 ha        1 LIG      0.137000
     49 H13         1.6700    0.2580   -4.9730 ha        1 LIG      0.176000
     50 H14        -3.7930    1.0270   -2.9500 h1        1 LIG      0.060700
     51 H15        -3.9150   -0.6900   -3.0600 h1        1 LIG      0.060700
     52 H16        -3.1830    0.2800   -5.3480 hn        1 LIG      0.324500
     53 H17        -2.2920   -0.2980    3.5870 ha        1 LIG      0.140000
     54 H18        -4.8780    0.1680   -0.5660 ha        1 LIG      0.136000
     55 H19        -5.9600    0.1830    1.6070 ha        1 LIG      0.136000
     56 H20        -4.6990   -0.0340    3.6190 ha        1 LIG      0.135000
@<TRIPOS>BOND
     1    1    2 2   
     2    2    3 1   
     3    2    5 1   
     4    3    4 1   
     5    5    6 1   
     6    5    7 1   
     7    5   15 1   
     8    7    8 1   
     9    7    9 1   
    10    7   10 1   
    11    8   14 1   
    12   10   11 1   
    13   10   31 1   
    14   11   12 ar  
    15   11   29 ar  
    16   12   13 1   
    17   12   22 ar  
    18   13   14 1   
    19   13   16 1   
    20   14   15 1   
    21   16   17 ar  
    22   16   21 ar  
    23   17   18 ar  
    24   18   19 ar  
    25   19   20 ar  
    26   20   21 ar  
    27   21   22 1   
    28   22   23 ar  
    29   23   24 1   
    30   23   26 ar  
    31   24   25 2   
    32   24   28 1   
    33   26   27 1   
    34   26   29 ar  
    35   27   28 1   
    36   29   30 1   
    37   30   31 ar  
    38   30   33 ar  
    39   31   32 ar  
    40   32   35 ar  
    41   33   34 ar  
    42   34   35 ar  
    43    4   36 1   
    44    4   37 1   
    45    4   38 1   
    46    6   39 1   
    47    9   40 1   
    48    9   41 1   
    49    9   42 1   
    50   14   43 1   
    51   15   44 1   
    52   15   45 1   
    53   17   46 1   
    54   18   47 1   
    55   19   48 1   
    56   20   49 1   
    57   27   50 1   
    58   27   51 1   
    59   28   52 1   
    60   32   53 1   
    61   33   54 1   
    62   34   55 1   
    63   35   56 1   
@<TRIPOS>SUBSTRUCTURE
     1 LIG         1 TEMP              0 ****  ****    0 ROOT
