@<TRIPOS>MOLECULE
KNV
   51    53     1     0     0
SMALL
bcc


@<TRIPOS>ATOM
      1 C          -0.2020    0.7980   -0.1120 C.a       1 LIG     -0.070300
      2 C1         -0.0340    2.1640    0.0290 C.a       1 LIG      0.112900
      3 C2          1.2070    2.6770    0.3770 C.a       1 LIG      0.106900
      4 C3          2.1020    0.4550    0.4440 C.a       1 LIG     -0.100300
      5 C4          0.8650   -0.0550    0.0980 C.a       1 LIG     -0.118000
      6 C5          6.7420   -1.2030    1.4010 C.3       1 LIG      0.083100
      7 C6          5.1880   -1.6430   -0.4150 C.y       1 LIG      0.159500
      8 C7          5.9360   -2.0290   -1.7040 C.y       1 LIG     -0.110400
      9 C8          7.2300   -1.8460   -0.8910 C.y       1 LIG      0.132800
     10 C9          3.2640   -0.4770    0.6720 C.3       1 LIG     -0.031100
     11 C10         4.0080   -0.6960   -0.6460 C.3       1 LIG     -0.112400
     12 C11        -5.6710   -0.2650   -0.9600 C.a       1 LIG      0.639200
     13 C12        -6.2310   -1.3680   -0.3250 C.a       1 LIG     -0.295300
     14 C13        -5.5290   -1.9840    0.6960 C.a       1 LIG      0.002700
     15 C14        -4.2870   -1.4740    1.0480 C.a       1 LIG     -0.287300
     16 C15        -3.7920   -0.3750    0.3740 C.a       1 LIG      0.439600
     17 C16        -6.1010   -3.1820    1.4110 C.3       1 LIG     -0.065800
     18 C17        -2.4440    0.1830    0.7510 C.3       1 LIG     -0.120700
     19 C18        -1.5500    0.2400   -0.4890 C.3       1 LIG     -0.044100
     20 C19         2.2750    1.8200    0.5810 C.a       1 LIG     -0.149000
     21 F          -1.0780    2.9990   -0.1720 F.        1 LIG     -0.107900
     22 F1          1.3740    4.0100    0.5150 F.        1 LIG     -0.113900
     23 N          -4.4830    0.1920   -0.5960 N.b       1 LIG     -0.746000
     24 N1         -6.3630    0.3600   -1.9920 N.h       1 LIG     -0.927500
     25 N2          6.4360   -0.9560   -0.0140 N.4       1 LIG     -0.724400
     26 H           0.7380   -1.0740   -0.0040 H         1 LIG      0.146000
     27 H1          7.6470   -0.6960    1.6640 H         1 LIG      0.104367
     28 H2          6.8620   -2.2540    1.5620 H         1 LIG      0.104367
     29 H3          5.9400   -0.8390    2.0080 H         1 LIG      0.104367
     30 H4          4.7030   -2.3660    0.2080 H         1 LIG      0.118700
     31 H5          5.8140   -1.3450   -2.5180 H         1 LIG      0.109700
     32 H6          5.7210   -2.9280   -2.2430 H         1 LIG      0.109700
     33 H7          8.0290   -1.3660   -1.4170 H         1 LIG      0.117200
     34 H8          7.7910   -2.6740   -0.5110 H         1 LIG      0.117200
     35 H9          2.9020   -1.4150    1.0380 H         1 LIG      0.050200
     36 H10         3.9300   -0.0470    1.3910 H         1 LIG      0.050200
     37 H11         3.3420   -1.1250   -1.3650 H         1 LIG      0.092200
     38 H12         4.3700    0.2420   -1.0110 H         1 LIG      0.092200
     39 H13        -7.1570   -1.7220   -0.6110 H         1 LIG      0.148000
     40 H14        -3.7390   -1.9110    1.8050 H         1 LIG      0.145000
     41 H15        -7.0590   -3.4200    0.9980 H         1 LIG      0.054700
     42 H16        -6.2070   -2.9590    2.4520 H         1 LIG      0.054700
     43 H17        -5.4430   -4.0170    1.2900 H         1 LIG      0.054700
     44 H18        -1.9910   -0.4460    1.4880 H         1 LIG      0.056200
     45 H19        -2.5650    1.1690    1.1490 H         1 LIG      0.056200
     46 H20        -1.4290   -0.7460   -0.8870 H         1 LIG      0.076200
     47 H21        -2.0030    0.8700   -1.2260 H         1 LIG      0.076200
     48 H22         3.2000    2.2000    0.8350 H         1 LIG      0.146000
     49 H23        -7.2470    0.0240   -2.2660 H         1 LIG      0.404800
     50 H24        -5.9690    1.1390   -2.4480 H         1 LIG      0.404800
     51 H25         6.5170    0.0570   -0.0960 H         1 LIG      0.451800
@<TRIPOS>BOND
     1    1   19 1   
     2    1    2 ar  
     3    2   21 1   
     4    3    2 ar  
     5    3   22 1   
     6    4    5 ar  
     7    4   20 ar  
     8    5    1 ar  
     9    6   25 1   
    10    7    8 1   
    11    9    8 1   
    12   10    4 1   
    13   11    7 1   
    14   11   10 1   
    15   12   13 ar  
    16   13   14 ar  
    17   14   17 1   
    18   15   14 ar  
    19   16   15 ar  
    20   18   16 1   
    21   18   19 1   
    22   20    3 ar  
    23   23   16 ar  
    24   23   12 ar  
    25   24   12 1   
    26   25    9 1   
    27   25    7 1   
    28    5   26 1   
    29    6   27 1   
    30    6   28 1   
    31    6   29 1   
    32    7   30 1   
    33    8   31 1   
    34    8   32 1   
    35    9   33 1   
    36    9   34 1   
    37   10   35 1   
    38   10   36 1   
    39   11   37 1   
    40   11   38 1   
    41   13   39 1   
    42   15   40 1   
    43   17   41 1   
    44   17   42 1   
    45   17   43 1   
    46   18   44 1   
    47   18   45 1   
    48   19   46 1   
    49   19   47 1   
    50   20   48 1   
    51   24   49 1   
    52   24   50 1   
    53   25   51 1   
@<TRIPOS>SUBSTRUCTURE
     1 LIG         1 TEMP              0 ****  ****    0 ROOT
