@<TRIPOS>MOLECULE
DR4
   54    54     1     0     0
SMALL
bcc


@<TRIPOS>ATOM
      1 C          10.9230   -0.5730    0.1290 c3        1 LIG      0.125700
      2 O           9.7750    0.1980   -0.3150 os        1 LIG     -0.443900
      3 C1          8.5350   -0.1890    0.0230 c         1 LIG      0.629100
      4 O1          8.3740   -1.1790    0.6970 o         1 LIG     -0.541000
      5 C2          7.3440    0.6110   -0.4380 c3        1 LIG     -0.127400
      6 C3          6.0610   -0.0400    0.0800 c3        1 LIG     -0.079400
      7 C4          4.8520    0.7730   -0.3880 c3        1 LIG     -0.078400
      8 C5          3.5680    0.1210    0.1300 c3        1 LIG     -0.079400
      9 C6          2.3590    0.9340   -0.3380 c3        1 LIG     -0.078400
     10 C7          1.0750    0.2830    0.1800 c3        1 LIG     -0.078400
     11 C8         -0.1340    1.0950   -0.2880 c3        1 LIG     -0.084400
     12 C9         -1.4180    0.4440    0.2300 c3        1 LIG      0.134400
     13 O2         -2.5470    1.2030   -0.2070 os        1 LIG     -0.398600
     14 C10        -3.7090    0.5480    0.3060 c3        1 LIG      0.306900
     15 O3         -3.8270   -0.7430   -0.2890 os        1 LIG     -0.458600
     16 C11        -4.8850   -1.4300    0.3760 c3        1 LIG      0.070100
     17 C12        -4.9250   -2.8840   -0.0980 c3        1 LIG      0.141400
     18 O4         -3.7270   -3.5500    0.3070 oh        1 LIG     -0.593800
     19 C13        -6.2210   -0.7560    0.0580 c3        1 LIG      0.083100
     20 O5         -6.4360   -0.7630   -1.3550 oh        1 LIG     -0.592800
     21 C14        -6.1850    0.6900    0.5650 c3        1 LIG      0.081100
     22 O6         -7.3660    1.3750    0.1460 oh        1 LIG     -0.575800
     23 C15        -4.9490    1.3830   -0.0200 c3        1 LIG      0.087100
     24 O7         -4.8140    2.6840    0.5550 oh        1 LIG     -0.559800
     25 H          11.8210   -0.1170   -0.2340 h1        1 LIG      0.050367
     26 H1         10.8510   -1.5710   -0.2510 h1        1 LIG      0.050367
     27 H2         10.9430   -0.5990    1.1980 h1        1 LIG      0.050367
     28 H3          7.3240    0.6370   -1.5080 hc        1 LIG      0.078700
     29 H4          7.4160    1.6090   -0.0580 hc        1 LIG      0.078700
     30 H5          6.0810   -0.0660    1.1490 hc        1 LIG      0.057700
     31 H6          5.9890   -1.0380   -0.3000 hc        1 LIG      0.057700
     32 H7          4.8320    0.7990   -1.4580 hc        1 LIG      0.041700
     33 H8          4.9240    1.7710   -0.0080 hc        1 LIG      0.041700
     34 H9          3.5880    0.0950    1.2000 hc        1 LIG      0.042700
     35 H10         3.4960   -0.8770   -0.2500 hc        1 LIG      0.042700
     36 H11         2.3390    0.9600   -1.4070 hc        1 LIG      0.042700
     37 H12         2.4310    1.9320    0.0420 hc        1 LIG      0.042700
     38 H13         1.0950    0.2570    1.2500 hc        1 LIG      0.041200
     39 H14         1.0030   -0.7150   -0.2000 hc        1 LIG      0.041200
     40 H15        -0.1540    1.1210   -1.3570 hc        1 LIG      0.058200
     41 H16        -0.0620    2.0930    0.0920 hc        1 LIG      0.058200
     42 H17        -1.3980    0.4180    1.3000 h1        1 LIG      0.034700
     43 H18        -1.4900   -0.5540   -0.1500 h1        1 LIG      0.034700
     44 H19        -3.6230    0.4420    1.3670 h2        1 LIG      0.042700
     45 H20        -4.7160   -1.4000    1.4320 h1        1 LIG      0.061700
     46 H21        -5.0040   -2.9090   -1.1650 h1        1 LIG      0.062700
     47 H22        -5.7710   -3.3770    0.3340 h1        1 LIG      0.062700
     48 H23        -2.9600   -3.1030   -0.0850 ho        1 LIG      0.414000
     49 H24        -7.0170   -1.2870    0.5380 h1        1 LIG      0.100700
     50 H25        -5.7170   -0.2830   -1.7940 ho        1 LIG      0.418000
     51 H26        -6.1380    0.7030    1.6340 h1        1 LIG      0.078700
     52 H27        -7.4170    1.3690   -0.8230 ho        1 LIG      0.419000
     53 H28        -5.0540    1.4760   -1.0810 h1        1 LIG      0.105700
     54 H29        -4.7190    2.6040    1.5170 ho        1 LIG      0.399000
@<TRIPOS>BOND
     1    1    2 1   
     2    2    3 1   
     3    3    4 2   
     4    3    5 1   
     5    5    6 1   
     6    6    7 1   
     7    7    8 1   
     8    8    9 1   
     9    9   10 1   
    10   10   11 1   
    11   11   12 1   
    12   12   13 1   
    13   13   14 1   
    14   14   15 1   
    15   14   23 1   
    16   15   16 1   
    17   16   17 1   
    18   16   19 1   
    19   17   18 1   
    20   19   20 1   
    21   19   21 1   
    22   21   22 1   
    23   21   23 1   
    24   23   24 1   
    25    1   25 1   
    26    1   26 1   
    27    1   27 1   
    28    5   28 1   
    29    5   29 1   
    30    6   30 1   
    31    6   31 1   
    32    7   32 1   
    33    7   33 1   
    34    8   34 1   
    35    8   35 1   
    36    9   36 1   
    37    9   37 1   
    38   10   38 1   
    39   10   39 1   
    40   11   40 1   
    41   11   41 1   
    42   12   42 1   
    43   12   43 1   
    44   14   44 1   
    45   16   45 1   
    46   17   46 1   
    47   17   47 1   
    48   18   48 1   
    49   19   49 1   
    50   20   50 1   
    51   21   51 1   
    52   22   52 1   
    53   23   53 1   
    54   24   54 1   
@<TRIPOS>SUBSTRUCTURE
     1 LIG         1 TEMP              0 ****  ****    0 ROOT
