@<TRIPOS>MOLECULE
EQU
   38    41     1     0     0
SMALL
bcc


@<TRIPOS>ATOM
      1 C           0.1930    0.1260   -4.3730 C.a       1 LIG      0.130100
      2 C1         -0.9710    0.0940   -3.6610 C.a       1 LIG     -0.219000
      3 C2         -0.9270   -0.0510   -2.2640 C.a       1 LIG      0.002000
      4 C3          0.3240   -0.1590   -1.6150 C.a       1 LIG     -0.059000
      5 C4          1.5050   -0.1230   -2.3790 C.a       1 LIG     -0.093000
      6 C5          1.4300    0.0160   -3.7290 C.a       1 LIG     -0.140000
      7 C6         -2.1050   -0.0910   -1.4990 C.a       1 LIG     -0.131000
      8 C7         -2.0160   -0.2470   -0.1520 C.a       1 LIG     -0.108000
      9 C8         -0.7830   -0.3600    0.4900 C.a       1 LIG     -0.073300
     10 C9          0.3860   -0.2960   -0.2090 C.a       1 LIG     -0.048300
     11 C10        -0.7370   -0.5830    1.9640 C.3       1 LIG     -0.023400
     12 C11         0.5430    0.1140    2.4950 C.3       1 LIG     -0.151000
     13 C12         1.7130   -0.6590    1.9220 C.3       1 LIG     -0.055400
     14 C13         1.7520   -0.3600    0.4190 C.3       1 LIG     -0.038100
     15 C14        -1.8320    0.0770    2.8040 C.3       1 LIG     -0.070400
     16 C15        -1.1720    0.1510    4.2100 C.3       1 LIG     -0.188400
     17 C16         0.3540    0.0940    3.9820 C.        1 LIG      0.578100
     18 C17         0.5870    1.5610    1.9990 C.3       1 LIG     -0.082100
     19 O           0.1500    0.2660   -5.7240 O.h       1 LIG     -0.496100
     20 O1          1.2160    0.0490    4.8260 O.3       1 LIG     -0.518100
     21 H          -1.8780    0.1760   -4.1460 H         1 LIG      0.136000
     22 H1          2.4240   -0.2020   -1.9160 H         1 LIG      0.137000
     23 H2          2.2980    0.0410   -4.2870 H         1 LIG      0.152000
     24 H3         -3.0270   -0.0030   -1.9550 H         1 LIG      0.133000
     25 H4         -2.8810   -0.2830    0.4090 H         1 LIG      0.134000
     26 H5         -0.8180   -1.6450    2.0640 H         1 LIG      0.063700
     27 H6          1.5760   -1.7080    2.0850 H         1 LIG      0.053700
     28 H7          2.6300   -0.3710    2.3930 H         1 LIG      0.053700
     29 H8          2.2380    0.5820    0.2720 H         1 LIG      0.054200
     30 H9          2.2800   -1.1630   -0.0510 H         1 LIG      0.054200
     31 H10        -2.7190   -0.5210    2.8230 H         1 LIG      0.052200
     32 H11        -2.1460    1.0280    2.4280 H         1 LIG      0.052200
     33 H12        -1.4870   -0.6770    4.8100 H         1 LIG      0.076200
     34 H13        -1.4530    1.0470    4.7230 H         1 LIG      0.076200
     35 H14         0.7220    1.5700    0.9380 H         1 LIG      0.046367
     36 H15         1.4010    2.0740    2.4670 H         1 LIG      0.046367
     37 H16        -0.3320    2.0510    2.2460 H         1 LIG      0.046367
     38 H17        -0.6750    0.3400   -6.1610 H         1 LIG      0.420000
@<TRIPOS>BOND
     1    1    2 ar  
     2    1    6 ar  
     3    1   19 1   
     4    2    3 ar  
     5    3    4 ar  
     6    3    7 ar  
     7    4    5 ar  
     8    4   10 ar  
     9    5    6 ar  
    10    7    8 ar  
    11    8    9 ar  
    12    9   10 ar  
    13    9   11 1   
    14   10   14 1   
    15   11   12 1   
    16   11   15 1   
    17   12   13 1   
    18   12   17 1   
    19   12   18 1   
    20   13   14 1   
    21   15   16 1   
    22   16   17 1   
    23   17   20 2   
    24    2   21 1   
    25    5   22 1   
    26    6   23 1   
    27    7   24 1   
    28    8   25 1   
    29   11   26 1   
    30   13   27 1   
    31   13   28 1   
    32   14   29 1   
    33   14   30 1   
    34   15   31 1   
    35   15   32 1   
    36   16   33 1   
    37   16   34 1   
    38   18   35 1   
    39   18   36 1   
    40   18   37 1   
    41   19   38 1   
@<TRIPOS>SUBSTRUCTURE
     1 LIG         1 TEMP              0 ****  ****    0 ROOT
