@<TRIPOS>MOLECULE
AKG
   14    13     1     0     0
SMALL
bcc


@<TRIPOS>ATOM
      1 C           2.4200   -0.3090    0.0020 C.        1 LIG      0.842600
      2 O           2.4280   -1.5220    0.0010 O.3       1 LIG     -0.845300
      3 O1          3.5810    0.3720   -0.0030 O.3       1 LIG     -0.845300
      4 C1          1.1240    0.4280    0.0010 C.        1 LIG      0.476100
      5 O2          1.1160    1.6360    0.0020 O.3       1 LIG     -0.619100
      6 C2         -0.1760   -0.3340    0.0010 C.3       1 LIG     -0.166400
      7 C3         -1.3460    0.6520    0.0000 C.3       1 LIG     -0.173400
      8 C4         -2.6460   -0.1090   -0.0000 C.        1 LIG      0.902600
      9 O3         -2.6380   -1.3180   -0.0010 O.3       1 LIG     -0.875800
     10 O4         -3.8130    0.5540   -0.0010 O.3       1 LIG     -0.875800
     11 H          -0.2290   -0.9490    0.8750 H         1 LIG      0.065700
     12 H1         -0.2280   -0.9500   -0.8730 H         1 LIG      0.065700
     13 H2         -1.2930    1.2670   -0.8740 H         1 LIG      0.024200
     14 H3         -1.2940    1.2670    0.8740 H         1 LIG      0.024200
@<TRIPOS>BOND
     1    1    2 1   
     2    1    3 1   
     3    1    4 1   
     4    4    5 2   
     5    4    6 1   
     6    6    7 1   
     7    7    8 1   
     8    8    9 1   
     9    8   10 1   
    10    6   11 1   
    11    6   12 1   
    12    7   13 1   
    13    7   14 1   
@<TRIPOS>SUBSTRUCTURE
     1 LIG         1 TEMP              0 ****  ****    0 ROOT
