@<TRIPOS>MOLECULE
7A2
   19    18     1     0     0
SMALL
bcc


@<TRIPOS>ATOM
      1 C           2.5480   -0.3730    0.0310 c         1 LIG      0.916600
      2 O           2.4640    0.4240    0.9350 o         1 LIG     -0.905300
      3 C1          1.3000   -0.8830   -0.6420 c3        1 LIG     -0.191400
      4 C2          0.0720   -0.2390    0.0050 c3        1 LIG      0.063800
      5 C3          0.1500    1.2580   -0.1490 c         1 LIG      0.891600
      6 C4         -1.1950   -0.7570   -0.6770 c3        1 LIG      0.075100
      7 C5         -2.4040   -0.1230   -0.0400 c         1 LIG      0.934600
      8 O1          3.7530   -0.7990   -0.3780 o         1 LIG     -0.905300
      9 O2          0.0360   -0.5730    1.3940 oh        1 LIG     -0.617800
     10 O3          0.1950    1.8050   -1.3740 o         1 LIG     -0.890300
     11 O4          0.1720    1.9660    0.8300 o         1 LIG     -0.890300
     12 O5         -1.2690   -2.1770   -0.5310 oh        1 LIG     -0.657800
     13 O6         -2.6010    1.2010   -0.1430 o         1 LIG     -0.888300
     14 O7         -3.1970   -0.8060    0.5640 o         1 LIG     -0.888300
     15 H           1.2450   -1.9460   -0.5320 hc        1 LIG      0.051700
     16 H1          1.3280   -0.6320   -1.6820 hc        1 LIG      0.051700
     17 H2         -1.1670   -0.5060   -1.7170 h1        1 LIG      0.005700
     18 H3         -0.0140   -1.5370    1.4940 ho        1 LIG      0.427000
     19 H4         -1.2940   -2.4040    0.4120 ho        1 LIG      0.420000
@<TRIPOS>BOND
     1    1    3 1   
     2    2    1 1   
     3    3    4 1   
     4    4    6 1   
     5    4    5 1   
     6    5   11 1   
     7    5   10 1   
     8    6   12 1   
     9    7   13 1   
    10    7    6 1   
    11    8    1 1   
    12    9    4 1   
    13   14    7 1   
    14    3   15 1   
    15    3   16 1   
    16    6   17 1   
    17    9   18 1   
    18   12   19 1   
@<TRIPOS>SUBSTRUCTURE
     1 LIG         1 TEMP              0 ****  ****    0 ROOT
