@<TRIPOS>MOLECULE
AD0
   41    42     1     0     0
SMALL
bcc


@<TRIPOS>ATOM
      1 C           3.2860   -2.6450   -2.8660 c3        1 LIG      0.297900
      2 C1          4.6950   -2.8190   -2.2850 c3        1 LIG      0.106100
      3 C2          5.6200   -3.4960   -3.2930 c3        1 LIG      0.126100
      4 C3          5.5410   -2.7800   -4.6470 c3        1 LIG      0.105100
      5 C4          4.1100   -2.5100   -5.1150 c3        1 LIG      0.001100
      6 C5          3.3900   -3.7000   -5.6860 c         1 LIG      0.886600
      7 O           2.4850   -1.9630   -1.9040 os        1 LIG     -0.397600
      8 O1          5.2400   -1.5400   -1.9610 oh        1 LIG     -0.627800
      9 O2          5.2350   -4.8620   -3.4160 oh        1 LIG     -0.628800
     10 O3          6.2690   -3.4820   -5.6450 oh        1 LIG     -0.625800
     11 O4          3.3220   -1.9130   -4.0930 os        1 LIG     -0.444600
     12 O5          4.0700   -4.2080   -6.7430 o         1 LIG     -0.839800
     13 C6         -0.1100   -0.4920   -0.1060 c3        1 LIG      0.304900
     14 O6          2.3380   -4.1540   -5.2610 o         1 LIG     -0.839800
     15 C7          0.8270    0.3090   -1.0180 c3        1 LIG      0.093100
     16 C8          0.8380   -0.2770   -2.4340 c3        1 LIG      0.098100
     17 C9          1.1480   -1.7760   -2.3780 c3        1 LIG      0.106100
     18 C10         0.1840   -2.4630   -1.4140 c3        1 LIG      0.004100
     19 C11         0.5320   -3.9060   -1.2280 c         1 LIG      0.938600
     20 O7         -1.4670   -0.2890   -0.4970 oh        1 LIG     -0.676800
     21 O8          0.4010    1.6670   -1.0430 oh        1 LIG     -0.599800
     22 O9          1.8260    0.3690   -3.2310 oh        1 LIG     -0.610800
     23 O10         0.2430   -1.8790   -0.1130 os        1 LIG     -0.404600
     24 O11         0.4430   -4.5750   -2.4040 o         1 LIG     -0.824300
     25 O12         0.8560   -4.4190   -0.1670 o         1 LIG     -0.824300
     26 H           2.8680   -3.6060   -3.0800 h2        1 LIG      0.092700
     27 H1          4.6200   -3.4290   -1.4090 h1        1 LIG      0.067700
     28 H2          6.6340   -3.4430   -2.9550 h1        1 LIG      0.067700
     29 H3          5.9940   -1.8230   -4.4940 h1        1 LIG      0.064700
     30 H4          4.2320   -1.8220   -5.9250 h1        1 LIG      0.065700
     31 H5          5.3000   -1.0010   -2.7650 ho        1 LIG      0.460000
     32 H6          4.3160   -4.9130   -3.7220 ho        1 LIG      0.439000
     33 H7          5.8640   -4.3510   -5.7900 ho        1 LIG      0.436000
     34 H8         -0.0030   -0.1420    0.8990 h2        1 LIG      0.056700
     35 H9          1.8250    0.2550   -0.6350 h1        1 LIG      0.107700
     36 H10        -0.1270   -0.1220   -2.8690 h1        1 LIG      0.057700
     37 H11         1.0420   -2.1960   -3.3560 h1        1 LIG      0.071700
     38 H12        -0.7870   -2.3500   -1.8480 h1        1 LIG      0.025700
     39 H13        -1.5910   -0.5990   -1.4080 ho        1 LIG      0.424000
     40 H14        -0.5030    1.7160   -1.3900 ho        1 LIG      0.399000
     41 H15         2.7010    0.2290   -2.8370 ho        1 LIG      0.442000
@<TRIPOS>BOND
     1    1    2 1   
     2    1    7 1   
     3    1   11 1   
     4    2    3 1   
     5    2    8 1   
     6    3    4 1   
     7    3    9 1   
     8    4    5 1   
     9    4   10 1   
    10    5    6 1   
    11    5   11 1   
    12    6   12 1   
    13    6   14 1   
    14    7   17 1   
    15   13   15 1   
    16   13   20 1   
    17   13   23 1   
    18   15   16 1   
    19   15   21 1   
    20   16   17 1   
    21   16   22 1   
    22   17   18 1   
    23   18   19 1   
    24   18   23 1   
    25   19   24 1   
    26   19   25 1   
    27    1   26 1   
    28    2   27 1   
    29    3   28 1   
    30    4   29 1   
    31    5   30 1   
    32    8   31 1   
    33    9   32 1   
    34   10   33 1   
    35   13   34 1   
    36   15   35 1   
    37   16   36 1   
    38   17   37 1   
    39   18   38 1   
    40   20   39 1   
    41   21   40 1   
    42   22   41 1   
@<TRIPOS>SUBSTRUCTURE
     1 LIG         1 TEMP              0 ****  ****    0 ROOT
