@<TRIPOS>MOLECULE
BOD
   50    53     1     0     0
SMALL
bcc


@<TRIPOS>ATOM
      1 C           5.4510   -0.1440   -1.0370 C.a       1 LIG      0.740200
      2 C1          6.9000   -1.3570    0.2840 C.a       1 LIG      0.901900
      3 C2          4.7810   -0.9700    1.1080 C.a       1 LIG      0.472200
      4 C3          2.1570   -0.7400   -0.2670 C.3       1 LIG      0.167300
      5 C4          0.7990   -0.0870   -0.5350 C.3       1 LIG      0.183800
      6 C5         -0.7540    1.4590    0.3490 C.a       1 LIG      0.139600
      7 N           6.6420   -0.6960   -0.8350 N.b       1 LIG     -0.829000
      8 C6          2.9090    1.2790    0.8370 C.3       1 LIG      0.167300
      9 C7         -0.8920    2.8390    0.2530 C.a       1 LIG     -0.177000
     10 C8         -3.2620    2.5970    0.0070 C.a       1 LIG     -0.148000
     11 N1          8.1550   -1.9210    0.4610 N.h       1 LIG     -0.928500
     12 C9         -4.2260   -1.0430    0.1240 C.a       1 LIG      0.465700
     13 N2         -5.3210   -1.7800    0.0480 N.b       1 LIG     -0.720000
     14 C10        -5.6070    0.8990   -0.1510 C.a       1 LIG      0.465700
     15 C11        -4.3360    0.3460    0.0260 C.p       1 LIG     -0.308600
     16 N3          5.9930   -1.4940    1.2380 N.b       1 LIG     -0.779000
     17 N4          5.1830    0.5430   -2.2130 N.h       1 LIG     -0.944500
     18 C12         4.4680   -0.2710   -0.0470 C.a       1 LIG     -0.278000
     19 N5          3.1960    0.2980   -0.2200 N.h       1 LIG     -0.603000
     20 C13         1.5500    1.9320    0.5680 C.3       1 LIG      0.183800
     21 N6          0.5120    0.8930    0.5210 N.h       1 LIG     -0.638000
     22 C14        -2.1420    3.4010    0.0830 C.a       1 LIG     -0.102000
     23 C15        -1.8740    0.6440    0.2790 C.a       1 LIG     -0.149000
     24 C16        -3.1340    1.2120    0.1070 C.p       1 LIG     -0.002000
     25 N7         -6.6510    0.0930   -0.2280 N.b       1 LIG     -0.720000
     26 C17        -6.5070   -1.2180   -0.1250 C.a       1 LIG      0.845300
     27 O          -7.6030   -2.0090   -0.2100 O.2       1 LIG     -0.412100
     28 C18        -7.3960   -3.4190   -0.0930 C.3       1 LIG      0.123700
     29 H           4.0800   -1.0810    1.8570 H         1 LIG      0.024100
     30 H1          2.3810   -1.4340   -1.0500 H         1 LIG      0.044950
     31 H2          2.1260   -1.2580    0.6690 H         1 LIG      0.044950
     32 H3          0.0370   -0.8380   -0.5420 H         1 LIG      0.044450
     33 H4          0.8210    0.4060   -1.4840 H         1 LIG      0.044450
     34 H5          3.6710    2.0300    0.8440 H         1 LIG      0.044950
     35 H6          2.8880    0.7860    1.7860 H         1 LIG      0.044950
     36 H7         -0.0580    3.4450    0.3090 H         1 LIG      0.135000
     37 H8         -4.1940    3.0210   -0.1240 H         1 LIG      0.135000
     38 H9          8.3610   -2.4150    1.2880 H         1 LIG      0.427800
     39 H10         8.8400   -1.8270   -0.2400 H         1 LIG      0.427800
     40 H11        -3.3040   -1.4870    0.2540 H         1 LIG      0.035600
     41 H12        -5.7280    1.9210   -0.2210 H         1 LIG      0.035600
     42 H13         4.2980    0.9490   -2.3550 H         1 LIG      0.433800
     43 H14         5.8780    0.6240   -2.9050 H         1 LIG      0.433800
     44 H15         1.5810    2.4490   -0.3680 H         1 LIG      0.044450
     45 H16         1.3260    2.6270    1.3500 H         1 LIG      0.044450
     46 H17        -2.2390    4.4260    0.0130 H         1 LIG      0.134000
     47 H18        -1.7740   -0.3800    0.3540 H         1 LIG      0.138000
     48 H19        -8.3350   -3.9250   -0.1770 H         1 LIG      0.054367
     49 H20        -6.9570   -3.6370    0.8580 H         1 LIG      0.054367
     50 H21        -6.7420   -3.7490   -0.8730 H         1 LIG      0.054367
@<TRIPOS>BOND
     1    1   18 ar  
     2    1    7 ar  
     3    2   16 ar  
     4    2   11 1   
     5    3   16 ar  
     6    5    4 1   
     7    6   21 1   
     8    6   23 ar  
     9    7    2 ar  
    10    8   19 1   
    11    9    6 ar  
    12   10   24 ar  
    13   12   13 ar  
    14   14   15 ar  
    15   14   25 ar  
    16   15   12 ar  
    17   17    1 1   
    18   18    3 ar  
    19   19   18 1   
    20   19    4 1   
    21   20    8 1   
    22   20   21 1   
    23   21    5 1   
    24   22    9 ar  
    25   22   10 ar  
    26   24   23 ar  
    27   24   15 1   
    28   25   26 ar  
    29   26   13 ar  
    30   26   27 1   
    31   27   28 1   
    32    3   29 1   
    33    4   30 1   
    34    4   31 1   
    35    5   32 1   
    36    5   33 1   
    37    8   34 1   
    38    8   35 1   
    39    9   36 1   
    40   10   37 1   
    41   11   38 1   
    42   11   39 1   
    43   12   40 1   
    44   14   41 1   
    45   17   42 1   
    46   17   43 1   
    47   20   44 1   
    48   20   45 1   
    49   22   46 1   
    50   23   47 1   
    51   28   48 1   
    52   28   49 1   
    53   28   50 1   
@<TRIPOS>SUBSTRUCTURE
     1 LIG         1 TEMP              0 ****  ****    0 ROOT
