@<TRIPOS>MOLECULE
PM6
   14    15     1     0     0
SMALL
bcc


@<TRIPOS>ATOM
      1 N           2.4700    0.3590    0.0100 na        1 LIG     -0.378000
      2 C           1.3640   -0.4540    0.0050 ca        1 LIG      0.432800
      3 N1          1.1650   -1.7680    0.0100 nb        1 LIG     -0.697000
      4 C1         -0.0550   -2.2620    0.0030 ca        1 LIG      0.662900
      5 N2         -1.1300   -1.4960   -0.0110 nb        1 LIG     -0.745000
      6 C2         -1.0300   -0.1700   -0.0170 ca        1 LIG      0.589600
      7 C3          0.2520    0.4050   -0.0090 ca        1 LIG     -0.159200
      8 N3          0.7280    1.6730   -0.0120 nc        1 LIG     -0.525100
      9 C4          2.0290    1.6480   -0.0010 cd        1 LIG      0.415700
     10 S          -2.4720    0.8430   -0.0350 sh        1 LIG     -0.251100
     11 H           3.4090    0.0650    0.0200 hn        1 LIG      0.321700
     12 H1         -0.1760   -3.2870    0.0090 h5        1 LIG      0.057100
     13 H2          2.6370    2.4820   -0.0010 h5        1 LIG      0.076800
     14 H3         -3.5800    0.0540   -0.0400 hs        1 LIG      0.198800
@<TRIPOS>BOND
     1    1    2 1   
     2    1    9 1   
     3    2    3 ar  
     4    2    7 ar  
     5    3    4 ar  
     6    4    5 ar  
     7    5    6 ar  
     8    6    7 ar  
     9    6   10 1   
    10    7    8 1   
    11    8    9 2   
    12    1   11 1   
    13    4   12 1   
    14    9   13 1   
    15   10   14 1   
@<TRIPOS>SUBSTRUCTURE
     1 LIG         1 TEMP              0 ****  ****    0 ROOT
