@<TRIPOS>MOLECULE
PHZ
   16    16     1     0     0
SMALL
bcc


@<TRIPOS>ATOM
      1 N          -2.7350    0.4300    0.0330 N.3       1 LIG     -0.642600
      2 N1         -1.8120   -0.5760    0.0170 N.h       1 LIG     -0.486400
      3 C          -0.4480   -0.2730    0.0100 C.a       1 LIG      0.079600
      4 C1         -0.0290    1.0510    0.0140 C.a       1 LIG     -0.171000
      5 C2          1.3200    1.3470    0.0120 C.a       1 LIG     -0.100000
      6 C3          2.2530    0.3270   -0.0050 C.a       1 LIG     -0.157000
      7 C4          1.8390   -0.9930   -0.0140 C.a       1 LIG     -0.100000
      8 C5          0.4920   -1.2960   -0.0060 C.a       1 LIG     -0.171000
      9 H          -3.6740    0.0300    0.0360 H         1 LIG      0.344300
     10 H1         -2.6160    1.0130   -0.7950 H         1 LIG      0.344300
     11 H2         -2.1080   -1.5150    0.0100 H         1 LIG      0.400800
     12 H3         -0.7250    1.8130    0.0180 H         1 LIG      0.131000
     13 H4          1.6320    2.3310    0.0230 H         1 LIG      0.132500
     14 H5          3.2600    0.5510   -0.0110 H         1 LIG      0.134000
     15 H6          2.5380   -1.7520   -0.0270 H         1 LIG      0.132500
     16 H7          0.1840   -2.2810   -0.0120 H         1 LIG      0.131000
@<TRIPOS>BOND
     1    1    2 1   
     2    2    3 1   
     3    3    4 ar  
     4    3    8 ar  
     5    4    5 ar  
     6    5    6 ar  
     7    6    7 ar  
     8    7    8 ar  
     9    1    9 1   
    10    1   10 1   
    11    2   11 1   
    12    4   12 1   
    13    5   13 1   
    14    6   14 1   
    15    7   15 1   
    16    8   16 1   
@<TRIPOS>SUBSTRUCTURE
     1 LIG         1 TEMP              0 ****  ****    0 ROOT
