@<TRIPOS>MOLECULE
MF7
   41    42     1     0     0
SMALL
bcc


@<TRIPOS>ATOM
      1 P           4.9230   -0.9760    0.8020 p5        1 LIG      1.345900
      2 O           6.1260   -0.1530    0.5420 o         1 LIG     -0.923167
      3 O1          3.7050   -0.4490   -0.1090 os        1 LIG     -0.573200
      4 C           3.2570    0.9080   -0.1000 c3        1 LIG      0.211400
      5 C1          2.0890    1.0670   -1.0760 c3        1 LIG      0.074100
      6 C2          1.5900    2.5340   -1.0970 c3        1 LIG      0.076100
      7 O2          2.3450    3.3160   -2.0250 oh        1 LIG     -0.638800
      8 C3          0.1260    2.3720   -1.5710 c3        1 LIG     -0.099400
      9 C4         -0.2140    0.9020   -1.2530 c3        1 LIG      0.410300
     10 O3          0.9390    0.3260   -0.6160 os        1 LIG     -0.444600
     11 N          -1.3650    0.8410   -0.3500 nh        1 LIG     -0.837900
     12 C5         -2.2860   -0.1900   -0.4690 ca        1 LIG      0.766200
     13 C6         -3.3890   -0.2580    0.3870 ca        1 LIG     -0.306000
     14 N1         -3.5880    0.7140    1.3840 n         1 LIG     -0.331000
     15 C7         -4.3060    1.8210    1.1120 c         1 LIG      0.666900
     16 N2         -2.1360   -1.1250   -1.4030 nb        1 LIG     -0.826000
     17 C8         -3.0110   -2.1120   -1.5220 ca        1 LIG      0.880900
     18 N3         -2.8190   -3.0670   -2.5070 nh        1 LIG     -0.903500
     19 N4         -4.0640   -2.2120   -0.7250 nb        1 LIG     -0.891000
     20 C9         -4.2850   -1.3120    0.2280 ca        1 LIG      0.671600
     21 O4         -5.3670   -1.4230    1.0390 oh        1 LIG     -0.618300
     22 O5          5.2370   -2.5130    0.4410 o         1 LIG     -0.923167
     23 C10        -3.0150    0.5220    2.7190 c3        1 LIG      0.036300
     24 O6         -4.4780    2.6600    1.9720 o         1 LIG     -0.656100
     25 O7          4.5200   -0.8610    2.3560 o         1 LIG     -0.923167
     26 H           4.0600    1.5500   -0.3970 h1        1 LIG      0.001200
     27 H1          2.9360    1.1710    0.8860 h1        1 LIG      0.001200
     28 H2          2.4480    0.7350   -2.0280 h1        1 LIG      0.032700
     29 H3          1.6860    3.0370   -0.1570 h1        1 LIG      0.184700
     30 H4          2.2980    2.9090   -2.9040 ho        1 LIG      0.403000
     31 H5          0.0440    2.5620   -2.6210 hc        1 LIG      0.057700
     32 H6         -0.5390    3.0590   -1.0910 hc        1 LIG      0.057700
     33 H7         -0.4610    0.3670   -2.1460 h2        1 LIG      0.052700
     34 H8         -1.4850    1.5310    0.3420 hn        1 LIG      0.547800
     35 H9         -4.7100    1.9560    0.1720 h5        1 LIG      0.000200
     36 H10        -2.0410   -3.0060   -3.1070 hn        1 LIG      0.386300
     37 H11        -3.4610   -3.8070   -2.6070 hn        1 LIG      0.386300
     38 H12        -5.9660   -2.1350    0.9260 ho        1 LIG      0.419000
     39 H13        -2.4820   -0.4060    2.7480 h1        1 LIG      0.075700
     40 H14        -3.8010    0.5050    3.4450 h1        1 LIG      0.075700
     41 H15        -2.3440    1.3260    2.9380 h1        1 LIG      0.075700
@<TRIPOS>BOND
     1    1   25 1   
     2    2    1 1   
     3    3    1 1   
     4    4    3 1   
     5    5   10 1   
     6    5    4 1   
     7    6    5 1   
     8    7    6 1   
     9    8    6 1   
    10    8    9 1   
    11    9   11 1   
    12    9   10 1   
    13   12   11 1   
    14   12   13 ar  
    15   13   14 1   
    16   14   15 1   
    17   15   24 2   
    18   16   12 ar  
    19   17   16 ar  
    20   17   19 ar  
    21   18   17 1   
    22   19   20 ar  
    23   20   13 ar  
    24   20   21 1   
    25   22    1 1   
    26   23   14 1   
    27    4   26 1   
    28    4   27 1   
    29    5   28 1   
    30    6   29 1   
    31    7   30 1   
    32    8   31 1   
    33    8   32 1   
    34    9   33 1   
    35   11   34 1   
    36   15   35 1   
    37   18   36 1   
    38   18   37 1   
    39   21   38 1   
    40   23   39 1   
    41   23   40 1   
    42   23   41 1   
@<TRIPOS>SUBSTRUCTURE
     1 LIG         1 TEMP              0 ****  ****    0 ROOT
