@<TRIPOS>MOLECULE
GXE
   13    13     1     0     0
SMALL
bcc


@<TRIPOS>ATOM
      1 SE          1.6550    0.0000   -0.0200 sh        1 LIG     -0.254700
      2 C          -0.3060    0.0000   -0.0090 ca        1 LIG      0.015900
      3 C1         -0.9970   -1.1970   -0.0030 ca        1 LIG     -0.132000
      4 C2         -2.3790   -1.1970    0.0040 ca        1 LIG     -0.113000
      5 C3         -3.0700   -0.0000    0.0070 ca        1 LIG     -0.137000
      6 C4         -2.3790    1.1970    0.0020 ca        1 LIG     -0.113000
      7 C5         -0.9970    1.1970   -0.0010 ca        1 LIG     -0.132000
      8 H           2.1580    1.4240   -0.0250 hs        1 LIG      0.190800
      9 H1         -0.4810   -2.0910   -0.0040 ha        1 LIG      0.136500
     10 H2         -2.8950   -2.0910    0.0070 ha        1 LIG      0.133500
     11 H3         -4.1020    0.0000    0.0130 ha        1 LIG      0.134000
     12 H4         -2.8950    2.0910    0.0010 ha        1 LIG      0.133500
     13 H5         -0.4810    2.0910    0.0030 ha        1 LIG      0.136500
@<TRIPOS>BOND
     1    1    2 1   
     2    2    7 ar  
     3    3    4 ar  
     4    3    2 ar  
     5    4    5 ar  
     6    5    6 ar  
     7    7    6 ar  
     8    1    8 1   
     9    3    9 1   
    10    4   10 1   
    11    5   11 1   
    12    6   12 1   
    13    7   13 1   
@<TRIPOS>SUBSTRUCTURE
     1 LIG         1 TEMP              0 ****  ****    0 ROOT
