@<TRIPOS>MOLECULE
ALS
   18    17     1     0     0
SMALL
bcc


@<TRIPOS>ATOM
      1 C           2.8060   -0.0270    0.1110 C.        1 LIG      0.925600
      2 OXT         3.2400   -0.7680    0.9610 O.3       1 LIG     -0.792800
      3 CA          1.5760   -0.4140   -0.6690 C.3       1 LIG     -0.094500
      4 N           1.3780   -1.8670   -0.5840 N.4       1 LIG     -0.826600
      5 C1          0.3560    0.3020   -0.0850 C.3       1 LIG      0.423900
      6 O           0.4950    1.7120   -0.2730 O.h       1 LIG     -0.593800
      7 O1         -0.8260   -0.1520   -0.7480 O.2       1 LIG     -0.675500
      8 S          -2.0740   -0.1220    0.1210 S.6       1 LIG      1.724300
      9 O2         -3.0930   -0.7840   -0.6160 O.3       1 LIG     -0.746867
     10 O3         -1.6680   -0.5270    1.4210 O.3       1 LIG     -0.746867
     11 O4         -2.5060    1.3330    0.2390 O.3       1 LIG     -0.746867
     12 O5          3.4160    1.1430   -0.1350 O.3       1 LIG     -0.792800
     13 HA          1.7000   -0.1310   -1.6930 H         1 LIG      0.078700
     14 H1          1.2600   -2.1380    0.3920 H         1 LIG      0.452800
     15 H2          2.1910   -2.3440   -0.9730 H         1 LIG      0.452800
     16 H3          0.5450   -2.1280   -1.1120 H         1 LIG      0.452800
     17 H           0.2840    0.0870    0.9610 H         1 LIG      0.097700
     18 H4          0.5600    1.9070   -1.2210 H         1 LIG      0.409000
@<TRIPOS>BOND
     1    1    3 1   
     2    1   12 1   
     3    2    1 1   
     4    3    5 1   
     5    3    4 1   
     6    5    7 1   
     7    6    5 1   
     8    7    8 1   
     9    8   11 1   
    10    9    8 1   
    11   10    8 1   
    12    3   13 1   
    13    4   14 1   
    14    4   15 1   
    15    4   16 1   
    16    5   17 1   
    17    6   18 1   
@<TRIPOS>SUBSTRUCTURE
     1 LIG         1 TEMP              0 ****  ****    0 ROOT
