@<TRIPOS>MOLECULE
CRM
   44    45     1     0     0
SMALL
bcc


@<TRIPOS>ATOM
      1 C           3.6790   -0.0450    0.1700 c         1 LIG      0.816500
      2 O           4.5870   -0.0280    0.9780 o         1 LIG     -0.651500
      3 N           2.4640    0.3790    0.5540 n         1 LIG     -0.487100
      4 C1          1.4100    0.3790   -0.3170 cc        1 LIG      0.210200
      5 N1          0.1760    0.7960    0.0680 n         1 LIG     -0.384000
      6 C2         -0.0560    1.2660    1.4360 c3        1 LIG      0.033000
      7 C3         -0.4720    0.0860    2.3170 c3        1 LIG      0.097100
      8 C4         -0.7140    0.5760    3.7460 c3        1 LIG      0.110100
      9 C5         -1.1300   -0.6030    4.6260 c3        1 LIG      0.080100
     10 C6         -1.3720   -0.1130    6.0550 c3        1 LIG      0.099400
     11 O1         -1.7610   -1.2150    6.8770 oh        1 LIG     -0.599800
     12 O2         -2.3310   -1.1820    4.1110 oh        1 LIG     -0.611800
     13 O3          0.4860    1.1550    4.2610 oh        1 LIG     -0.609800
     14 O4         -1.6720   -0.4920    1.8020 oh        1 LIG     -0.625800
     15 C7         -0.8320    0.7770   -0.8300 c         1 LIG      0.580200
     16 O5         -1.9450    1.1530   -0.5070 o         1 LIG     -0.595500
     17 C8         -0.5900    0.3210   -2.1480 cc        1 LIG      0.393300
     18 C9         -1.7160    0.3000   -3.1490 c3        1 LIG     -0.095700
     19 C10        -1.1980   -0.2310   -4.4870 c3        1 LIG     -0.204400
     20 C11        -2.3230   -0.2520   -5.4890 c         1 LIG      0.917600
     21 O6         -2.1000   -0.6840   -6.7400 o         1 LIG     -0.840800
     22 O7         -3.4270    0.1200   -5.1660 o         1 LIG     -0.840800
     23 N2          0.6010   -0.0830   -2.5020 nd        1 LIG     -0.462300
     24 C12         1.6090   -0.0710   -1.6260 cd        1 LIG     -0.105600
     25 C13         2.9570   -0.5220   -2.0070 c         1 LIG      0.748700
     26 O8          3.1860   -0.9240   -3.1330 o         1 LIG     -0.576500
     27 N3          3.9310   -0.4880   -1.0720 n         1 LIG     -0.594500
     28 H           2.3300    0.6950    1.4770 hn        1 LIG      0.368500
     29 H1         -0.8340    2.0010    1.4340 h1        1 LIG      0.090200
     30 H2          0.8430    1.7000    1.8210 h1        1 LIG      0.090200
     31 H3          0.3060   -0.6490    2.3200 h1        1 LIG      0.053700
     32 H4         -1.4920    1.3110    3.7440 h1        1 LIG      0.088700
     33 H5         -0.3520   -1.3380    4.6280 h1        1 LIG      0.091700
     34 H6         -2.1490    0.6220    6.0530 h1        1 LIG      0.064700
     35 H7         -0.4730    0.3200    6.4410 h1        1 LIG      0.064700
     36 H8         -2.5760   -1.6070    6.5270 ho        1 LIG      0.409000
     37 H9         -3.0360   -0.5160    4.1090 ho        1 LIG      0.423000
     38 H10         1.1910    0.4890    4.2630 ho        1 LIG      0.419000
     39 H11        -2.3770    0.1740    1.8000 ho        1 LIG      0.451000
     40 H12        -2.0940    1.2920   -3.2810 hc        1 LIG      0.086700
     41 H13        -2.4990   -0.3360   -2.7920 hc        1 LIG      0.086700
     42 H14        -0.8200   -1.2230   -4.3550 hc        1 LIG      0.030200
     43 H15        -0.4150    0.4050   -4.8440 hc        1 LIG      0.030200
     44 H16         4.8380   -0.7920   -1.3040 hn        1 LIG      0.351500
@<TRIPOS>BOND
     1    1    2 2   
     2    1    3 1   
     3    1   27 1   
     4    3    4 1   
     5    4    5 1   
     6    4   24 2   
     7    5    6 1   
     8    5   15 1   
     9    6    7 1   
    10    7    8 1   
    11    7   14 1   
    12    8    9 1   
    13    8   13 1   
    14    9   10 1   
    15    9   12 1   
    16   10   11 1   
    17   15   16 2   
    18   15   17 1   
    19   17   18 1   
    20   17   23 2   
    21   18   19 1   
    22   19   20 1   
    23   20   21 1   
    24   20   22 1   
    25   23   24 1   
    26   24   25 1   
    27   25   26 2   
    28   25   27 1   
    29    3   28 1   
    30    6   29 1   
    31    6   30 1   
    32    7   31 1   
    33    8   32 1   
    34    9   33 1   
    35   10   34 1   
    36   10   35 1   
    37   11   36 1   
    38   12   37 1   
    39   13   38 1   
    40   14   39 1   
    41   18   40 1   
    42   18   41 1   
    43   19   42 1   
    44   19   43 1   
    45   27   44 1   
@<TRIPOS>SUBSTRUCTURE
     1 LIG         1 TEMP              0 ****  ****    0 ROOT
