@<TRIPOS>MOLECULE
MCS
   21    20     1     0     0
SMALL
bcc


@<TRIPOS>ATOM
      1 O1          2.4360   -0.6640   -3.0100 O.3       1 <1>     -0.786300
      2 C1          1.5000   -0.7940   -2.2310 C.        1 <1>      0.929600
      3 C2          1.6650   -1.1640   -0.7660 C.3       1 <1>     -0.053500
      4 N1          3.0350   -1.4720   -0.4400 N.4       1 <1>     -0.829600
      5 C3          1.0760   -0.1070    0.1720 C.3       1 <1>      0.003700
      6 S1          1.8320    1.5420   -0.0140 S.3       1 <1>     -0.369700
      7 C4          0.8770    2.4480    1.1590 C.        1 <1>      0.638700
      8 O2         -0.0250    1.9500    1.8210 O.3       1 <1>     -0.559100
      9 C5          1.2780    3.9020    1.2410 C.3       1 <1>     -0.310400
     10 C6          1.0560    4.5360    2.5880 C.        1 <1>      0.949600
     11 O3          1.4390    5.8370    2.6190 O.3       1 <1>     -0.835300
     12 O4          0.5790    3.9500    3.5520 O.3       1 <1>     -0.835300
     13 O5          0.2080   -0.6050   -2.5930 O.3       1 <1>     -0.786300
     14 H1          1.0980   -2.0580   -0.6110 H         1 <1>      0.102700
     15 H2          3.6120   -0.6420   -0.5760 H         1 <1>      0.463467
     16 H3          3.3690   -2.2210   -1.0470 H         1 <1>      0.463467
     17 H4          3.0940   -1.7720    0.5330 H         1 <1>      0.463467
     18 H5          1.2200   -0.4330    1.1810 H         1 <1>      0.098700
     19 H6          0.0410   -0.0070   -0.0810 H         1 <1>      0.098700
     20 H7          0.7090    4.4470    0.5170 H         1 <1>      0.076200
     21 H8          2.3320    3.9380    1.0580 H         1 <1>      0.076200
@<TRIPOS>BOND
     1    1    2 1   
     2    2    3 1   
     3    2   13 1   
     4    3    4 1   
     5    3    5 1   
     6    5    6 1   
     7    6    7 1   
     8    7    8 2   
     9    7    9 1   
    10    9   10 1   
    11   10   11 1   
    12   10   12 1   
    13    3   14 1   
    14    4   15 1   
    15    4   16 1   
    16    4   17 1   
    17    5   18 1   
    18    5   19 1   
    19    9   20 1   
    20    9   21 1   
@<TRIPOS>SUBSTRUCTURE
     1 <1>         1 TEMP              0 ****  ****    0 ROOT
