@<TRIPOS>MOLECULE
LA3
   61    65     1     0     0
SMALL
bcc


@<TRIPOS>ATOM
      1 C          -1.8930    0.3460   -1.6170 C.a       1 LIG     -0.120000
      2 C1         -1.0690    2.3280    0.1390 C.a       1 LIG     -0.133500
      3 C2         -2.7450    0.7770   -0.6020 C.p       1 LIG     -0.035000
      4 C3         -0.6360    0.9040   -1.7420 C.a       1 LIG     -0.133500
      5 C4         -0.2250    1.8920   -0.8670 C.a       1 LIG     -0.095300
      6 C5         -2.3250    1.7740    0.2770 C.a       1 LIG     -0.120000
      7 C6         -4.0950    0.1780   -0.4580 C.p       1 LIG     -0.038000
      8 C7          1.1460    2.5010   -1.0130 C.3       1 LIG     -0.037100
      9 C8         -6.6170   -0.9460   -0.1950 C.a       1 LIG      0.058100
     10 C9         -4.9480    0.6140    0.5530 C.a       1 LIG     -0.101000
     11 C10        -4.5130   -0.8180   -1.3390 C.a       1 LIG     -0.121000
     12 C11        -5.7680   -1.3750   -1.2050 C.a       1 LIG     -0.113000
     13 C12        -6.2060    0.0530    0.6850 C.a       1 LIG      0.054100
     14 O          -7.2150    0.2960    1.5710 O.2       1 LIG     -0.333900
     15 O1         -7.8830   -1.3290    0.1430 O.2       1 LIG     -0.333900
     16 C13        -8.3950   -0.2720    0.9750 C.3       1 LIG      0.321200
     17 C14         2.1410    1.7320   -0.1420 C.3       1 LIG     -0.125700
     18 C15         2.2720    0.3210   -0.6550 C.        1 LIG      0.660100
     19 C16         3.5060    2.4230   -0.1960 C.3       1 LIG     -0.153400
     20 C17         3.4110    3.7740    0.4640 C.        1 LIG      0.593100
     21 O2          2.3900    4.1020    1.0310 O.3       1 LIG     -0.574100
     22 N           4.4610    4.6180    0.4250 N.        1 LIG     -0.353400
     23 O3          4.3730    5.8880    1.0460 O.h       1 LIG     -0.435100
     24 O4          2.5890    0.1220   -1.8080 O.3       1 LIG     -0.619100
     25 N1          2.0350   -0.7190    0.1690 N.        1 LIG     -0.541900
     26 C18         2.1620   -2.0910   -0.3300 C.3       1 LIG      0.106000
     27 C19         3.5800   -2.5880   -0.1460 C.a       1 LIG     -0.110300
     28 C20         1.2870   -3.0480    0.5080 C.3       1 LIG      0.121100
     29 O5          1.1060   -2.5430    1.8320 O.h       1 LIG     -0.595800
     30 C21         2.1320   -4.3400    0.5240 C.3       1 LIG     -0.072100
     31 C22         5.9600   -3.9110    0.3470 C.a       1 LIG     -0.124000
     32 C23         4.7900   -1.9590   -0.3890 C.a       1 LIG     -0.096000
     33 C24         3.5630   -3.8800    0.3450 C.a       1 LIG     -0.093300
     34 C25         4.7550   -4.5400    0.5900 C.a       1 LIG     -0.118000
     35 C26         5.9780   -2.6180   -0.1430 C.a       1 LIG     -0.132000
     36 H          -2.2010   -0.3880   -2.2740 H         1 LIG      0.138000
     37 H1         -0.7580    3.0690    0.7870 H         1 LIG      0.155000
     38 H2         -0.0020    0.5830   -2.4900 H         1 LIG      0.155000
     39 H3         -2.9530    2.0970    1.0300 H         1 LIG      0.138000
     40 H4          1.1170    3.5240   -0.7020 H         1 LIG      0.064700
     41 H5          1.4530    2.4480   -2.0370 H         1 LIG      0.064700
     42 H6         -4.6420    1.3550    1.2030 H         1 LIG      0.160000
     43 H7         -3.8840   -1.1390   -2.0910 H         1 LIG      0.140000
     44 H8         -6.0760   -2.1130   -1.8580 H         1 LIG      0.156000
     45 H9         -8.9150    0.4570    0.3890 H         1 LIG      0.072700
     46 H10        -9.0990   -0.6210    1.7010 H         1 LIG      0.072700
     47 H11         1.7900    1.7130    0.8690 H         1 LIG      0.101700
     48 H12         3.8040    2.5450   -1.2160 H         1 LIG      0.092700
     49 H13         4.2290    1.8250    0.3180 H         1 LIG      0.092700
     50 H14         5.2900    4.3520   -0.0350 H         1 LIG      0.300500
     51 H15         3.4970    5.9900    1.4500 H         1 LIG      0.435000
     52 H16         1.7770   -0.5570    1.1050 H         1 LIG      0.321500
     53 H17         1.8720   -2.0790   -1.3600 H         1 LIG      0.107700
     54 H18         0.3010   -3.1840    0.1140 H         1 LIG      0.089700
     55 H19         1.9720   -2.3980    2.2440 H         1 LIG      0.402000
     56 H20         1.8430   -4.9870   -0.2770 H         1 LIG      0.068200
     57 H21         2.0000   -4.8930    1.4300 H         1 LIG      0.068200
     58 H22         6.8470   -4.4060    0.5310 H         1 LIG      0.133000
     59 H23         4.8030   -0.9940   -0.7550 H         1 LIG      0.143000
     60 H24         4.7430   -5.5050    0.9550 H         1 LIG      0.135000
     61 H25         6.8780   -2.1470   -0.3250 H         1 LIG      0.134000
@<TRIPOS>BOND
     1    2    5 ar  
     2    2    6 ar  
     3    3    1 ar  
     4    3    7 1   
     5    4    1 ar  
     6    5    4 ar  
     7    6    3 ar  
     8    7   11 ar  
     9    8    5 1   
    10    9   12 ar  
    11    9   15 1   
    12   10    7 ar  
    13   10   13 ar  
    14   11   12 ar  
    15   13    9 ar  
    16   13   14 1   
    17   14   16 1   
    18   16   15 1   
    19   17    8 1   
    20   18   17 1   
    21   18   25 1   
    22   19   17 1   
    23   19   20 1   
    24   20   21 2   
    25   22   20 1   
    26   22   23 1   
    27   24   18 2   
    28   26   25 1   
    29   26   28 1   
    30   27   26 1   
    31   28   29 1   
    32   30   28 1   
    33   31   34 ar  
    34   31   35 ar  
    35   32   27 ar  
    36   33   27 ar  
    37   33   30 1   
    38   34   33 ar  
    39   35   32 ar  
    40    1   36 1   
    41    2   37 1   
    42    4   38 1   
    43    6   39 1   
    44    8   40 1   
    45    8   41 1   
    46   10   42 1   
    47   11   43 1   
    48   12   44 1   
    49   16   45 1   
    50   16   46 1   
    51   17   47 1   
    52   19   48 1   
    53   19   49 1   
    54   22   50 1   
    55   23   51 1   
    56   25   52 1   
    57   26   53 1   
    58   28   54 1   
    59   29   55 1   
    60   30   56 1   
    61   30   57 1   
    62   31   58 1   
    63   32   59 1   
    64   34   60 1   
    65   35   61 1   
@<TRIPOS>SUBSTRUCTURE
     1 LIG         1 TEMP              0 ****  ****    0 ROOT
