@<TRIPOS>MOLECULE
KTL
   50    50     1     0     0
SMALL
bcc


@<TRIPOS>ATOM
      1 O           7.3260   -1.1340    0.3390 oh        1 LIG     -0.622800
      2 O1         -5.9990    1.8240    0.7280 oh        1 LIG     -0.597800
      3 O2          4.8000   -2.3880   -0.2170 oh        1 LIG     -0.621800
      4 O3         -5.2390   -2.5530    0.4910 oh        1 LIG     -0.580800
      5 O4         -0.2040   -1.9750   -0.3400 oh        1 LIG     -0.608800
      6 O5          3.7430   -0.0580   -1.5260 oh        1 LIG     -0.612800
      7 O6         -5.0530   -0.0530   -2.0770 oh        1 LIG     -0.593800
      8 O7          2.4450   -1.2650    1.6770 oh        1 LIG     -0.610800
      9 O8          1.7690    3.5200    0.6820 o         1 LIG     -0.703867
     10 O9         -0.1470    2.6030   -0.4630 o         1 LIG     -0.703867
     11 O10         2.0750    2.1890   -1.3070 o         1 LIG     -0.703867
     12 C           6.1980   -0.4170   -0.1690 c3        1 LIG      0.100400
     13 C1         -4.8630    1.1250    1.2390 c3        1 LIG      0.164400
     14 C2         -3.0730   -1.9950   -0.4750 c3        1 LIG     -0.124100
     15 C3         -1.2700    0.1480    0.1050 c3        1 LIG     -0.105100
     16 O11         1.3480    1.1680    0.7270 os        1 LIG     -0.592500
     17 C4          4.9100   -1.0730    0.3310 c3        1 LIG      0.141100
     18 C5         -4.6150   -1.9280   -0.6320 c3        1 LIG      0.162100
     19 C6         -0.0740   -0.7580    0.3990 c3        1 LIG      0.168100
     20 C7          3.7070   -0.2360   -0.1080 c3        1 LIG      0.121100
     21 C8         -5.0440   -0.4620   -0.7080 c3        1 LIG      0.173100
     22 C9          2.4140   -0.9550    0.2830 c3        1 LIG      0.126100
     23 C10        -4.1080    0.4660    0.0820 c3        1 LIG     -0.220400
     24 C11         1.2180   -0.0480   -0.0120 c3        1 LIG      0.175100
     25 S          -2.7860   -0.6310    0.7260 s4        1 LIG      0.373100
     26 S1          1.2580    2.4240   -0.1270 s6        1 LIG      1.692300
     27 H           8.1430   -0.7180    0.0220 ho        1 LIG      0.411000
     28 H1         -6.4780    2.2420    1.4610 ho        1 LIG      0.403000
     29 H2          5.5630   -2.9190    0.0610 ho        1 LIG      0.428000
     30 H3         -4.9650   -3.4820    0.5370 ho        1 LIG      0.412000
     31 H4         -1.0230   -2.4250   -0.0800 ho        1 LIG      0.437000
     32 H5          4.5630    0.3980   -1.7740 ho        1 LIG      0.436000
     33 H6         -5.6420   -0.6340   -2.5840 ho        1 LIG      0.422000
     34 H7          3.2040   -1.8400    1.8630 ho        1 LIG      0.425000
     35 H8          6.2160   -0.4350   -1.2390 h1        1 LIG      0.052200
     36 H9          6.2370    0.5970    0.1710 h1        1 LIG      0.052200
     37 H10        -5.1870    0.3730    1.9280 h1        1 LIG      0.056200
     38 H11        -4.2160    1.8140    1.7410 h1        1 LIG      0.056200
     39 H12        -2.5750   -1.8120   -1.4040 h1        1 LIG      0.121200
     40 H13        -2.7020   -2.9470   -0.1590 h1        1 LIG      0.121200
     41 H14        -1.3530    0.2980   -0.9510 h1        1 LIG      0.113200
     42 H15        -1.1300    1.0920    0.5890 h1        1 LIG      0.113200
     43 H16         4.9330   -1.1330    1.3990 h1        1 LIG      0.052700
     44 H17        -4.9100   -2.4380   -1.5250 h1        1 LIG      0.069700
     45 H18        -0.0430   -0.9780    1.4460 h1        1 LIG      0.056700
     46 H19         3.7430    0.7190    0.3730 h1        1 LIG      0.066700
     47 H20        -6.0190   -0.3870   -0.2730 h1        1 LIG      0.078700
     48 H21         2.3230   -1.8600   -0.2810 h1        1 LIG      0.075700
     49 H22        -3.7170    1.2560   -0.5250 h1        1 LIG      0.101700
     50 H23         1.1870    0.1720   -1.0590 h1        1 LIG      0.048700
@<TRIPOS>BOND
     1    1   12 1   
     2    2   13 1   
     3    3   17 1   
     4    4   18 1   
     5    5   19 1   
     6    6   20 1   
     7    7   21 1   
     8    8   22 1   
     9    9   26 1   
    10   10   26 1   
    11   11   26 1   
    12   12   17 1   
    13   13   23 1   
    14   14   18 1   
    15   14   25 1   
    16   15   19 1   
    17   15   25 1   
    18   16   24 1   
    19   16   26 1   
    20   17   20 1   
    21   18   21 1   
    22   19   24 1   
    23   20   22 1   
    24   21   23 1   
    25   22   24 1   
    26   23   25 1   
    27    1   27 1   
    28    2   28 1   
    29    3   29 1   
    30    4   30 1   
    31    5   31 1   
    32    6   32 1   
    33    7   33 1   
    34    8   34 1   
    35   12   35 1   
    36   12   36 1   
    37   13   37 1   
    38   13   38 1   
    39   14   39 1   
    40   14   40 1   
    41   15   41 1   
    42   15   42 1   
    43   17   43 1   
    44   18   44 1   
    45   19   45 1   
    46   20   46 1   
    47   21   47 1   
    48   22   48 1   
    49   23   49 1   
    50   24   50 1   
@<TRIPOS>SUBSTRUCTURE
     1 LIG         1 TEMP              0 ****  ****    0 ROOT
