@<TRIPOS>MOLECULE
TTC
   55    59     1     0     0
SMALL
bcc


@<TRIPOS>ATOM
      1 C           1.5110    1.5250    4.5450 c3        1 LIG     -0.095400
      2 C1          2.4270    1.6650    5.7620 c3        1 LIG     -0.111100
      3 C2          0.9640    0.0980    4.4800 c3        1 LIG      0.121000
      4 O           2.0510   -0.8230    4.3670 oh        1 LIG     -0.580800
      5 C3          0.0610   -0.0400    3.2810 cc        1 LIG      0.004800
      6 C4          0.1790   -0.1980    5.7360 c         1 LIG      0.687600
      7 C5         -1.2890   -0.1420    3.3980 cd        1 LIG     -0.210400
      8 C6          0.6440   -0.0570    2.0060 cc        1 LIG     -0.112000
      9 O1          0.6540   -0.8300    6.6500 o         1 LIG     -0.560500
     10 O2         -1.0860    0.2810    5.7810 os        1 LIG     -0.384900
     11 C7         -2.0740   -0.2440    2.2300 c         1 LIG      0.716700
     12 C8         -1.9910   -0.1530    4.7300 c3        1 LIG      0.177600
     13 C9         -0.1450   -0.1650    0.8820 cd        1 LIG     -0.051200
     14 O3         -3.2890   -0.3210    2.3260 o         1 LIG     -0.618500
     15 N          -1.5020   -0.2560    1.0110 n         1 LIG     -0.365000
     16 C10         0.2260   -0.2030   -0.5510 ca        1 LIG      0.474100
     17 C11        -2.0970   -0.3580   -0.3270 c3        1 LIG      0.139300
     18 C12        -0.9520   -0.3190   -1.3070 ca        1 LIG     -0.168600
     19 N1          1.4080   -0.1460   -1.1440 nb        1 LIG     -0.595000
     20 C13        -0.8980   -0.3740   -2.6650 ca        1 LIG     -0.112000
     21 C14         1.5240   -0.1940   -2.4710 ca        1 LIG      0.366600
     22 C15         0.3670   -0.3100   -3.2830 ca        1 LIG     -0.079300
     23 C16         2.7890   -0.1290   -3.0870 ca        1 LIG     -0.068300
     24 C17         0.4980   -0.3590   -4.6780 ca        1 LIG     -0.208300
     25 C18         2.8840   -0.1790   -4.4420 ca        1 LIG     -0.199000
     26 C19         1.7420   -0.2940   -5.2410 ca        1 LIG      0.164100
     27 C20        -0.7230   -0.4820   -5.5510 c3        1 LIG      0.192100
     28 N2         -1.2180    0.8570   -5.8920 n4        1 LIG     -0.684400
     29 C21        -2.4030    0.6670   -6.7390 c3        1 LIG      0.082600
     30 C22        -1.6880    1.4650   -4.6400 c3        1 LIG      0.082600
     31 O4          1.8700   -0.3400   -6.5930 oh        1 LIG     -0.542100
     32 H           2.0660    1.7350    3.6550 hc        1 LIG      0.061200
     33 H1          0.6980    2.2150    4.6290 hc        1 LIG      0.061200
     34 H2          3.2400    0.9750    5.6780 hc        1 LIG      0.053033
     35 H3          1.8720    1.4550    6.6520 hc        1 LIG      0.053033
     36 H4          2.8100    2.6630    5.8080 hc        1 LIG      0.053033
     37 H5          2.5540   -0.6320    3.5600 ho        1 LIG      0.441000
     38 H6          1.6690    0.0120    1.9090 ha        1 LIG      0.195000
     39 H7         -2.3290   -1.1460    4.9430 h1        1 LIG      0.093700
     40 H8         -2.8240    0.5170    4.6900 h1        1 LIG      0.093700
     41 H9         -2.7600    0.4630   -0.5000 h1        1 LIG      0.093700
     42 H10        -2.6660   -1.2580   -0.4310 h1        1 LIG      0.093700
     43 H11        -1.7590   -0.4600   -3.2270 ha        1 LIG      0.134000
     44 H12         3.6410   -0.0440   -2.5110 ha        1 LIG      0.183000
     45 H13         3.8130   -0.1310   -4.8880 ha        1 LIG      0.166000
     46 H14        -1.4840   -1.0200   -5.0260 hx        1 LIG      0.106700
     47 H15        -0.4690   -1.0070   -6.4480 hx        1 LIG      0.106700
     48 H16        -0.5050    1.4240   -6.3510 hn        1 LIG      0.465800
     49 H17        -3.1210    0.0690   -6.2180 hx        1 LIG      0.103033
     50 H18        -2.1180    0.1750   -7.6450 hx        1 LIG      0.103033
     51 H19        -2.8330    1.6190   -6.9700 hx        1 LIG      0.103033
     52 H20        -2.4320    0.8370   -4.1960 hx        1 LIG      0.103033
     53 H21        -2.1100    2.4260   -4.8470 hx        1 LIG      0.103033
     54 H22        -0.8650    1.5740   -3.9650 hx        1 LIG      0.103033
     55 H23         1.1080   -0.4170   -7.1330 ho        1 LIG      0.462000
@<TRIPOS>BOND
     1    1    2 1   
     2    1    3 1   
     3    3    4 1   
     4    3    5 1   
     5    3    6 1   
     6    5    7 2   
     7    5    8 1   
     8    6    9 2   
     9    6   10 1   
    10    7   11 1   
    11    7   12 1   
    12    8   13 2   
    13   10   12 1   
    14   11   14 2   
    15   11   15 1   
    16   13   15 1   
    17   13   16 1   
    18   15   17 1   
    19   16   18 ar  
    20   16   19 ar  
    21   17   18 1   
    22   18   20 ar  
    23   19   21 ar  
    24   20   22 ar  
    25   21   22 ar  
    26   21   23 ar  
    27   22   24 ar  
    28   23   25 ar  
    29   24   26 ar  
    30   24   27 1   
    31   25   26 ar  
    32   26   31 1   
    33   27   28 1   
    34   28   29 1   
    35   28   30 1   
    36    1   32 1   
    37    1   33 1   
    38    2   34 1   
    39    2   35 1   
    40    2   36 1   
    41    4   37 1   
    42    8   38 1   
    43   12   39 1   
    44   12   40 1   
    45   17   41 1   
    46   17   42 1   
    47   20   43 1   
    48   23   44 1   
    49   25   45 1   
    50   27   46 1   
    51   27   47 1   
    52   28   48 1   
    53   29   49 1   
    54   29   50 1   
    55   29   51 1   
    56   30   52 1   
    57   30   53 1   
    58   30   54 1   
    59   31   55 1   
@<TRIPOS>SUBSTRUCTURE
     1 LIG         1 TEMP              0 ****  ****    0 ROOT
