@<TRIPOS>MOLECULE
RDA
   46    47     1     0     0
SMALL
bcc


@<TRIPOS>ATOM
      1 C           1.5810    3.9250    0.9740 c3        1 LIG      0.124700
      2 O           2.2690    2.6470    1.0100 os        1 LIG     -0.427900
      3 C1          2.9210    2.2020   -0.0820 c         1 LIG      0.658700
      4 O1          2.9330    2.8700   -1.0980 o         1 LIG     -0.569000
      5 C2          3.6190    0.9070   -0.0460 ca        1 LIG     -0.242600
      6 C3          4.9650    0.8420    0.3490 ca        1 LIG      0.235100
      7 O2          5.6270    1.9740    0.6980 oh        1 LIG     -0.497100
      8 C4          5.6130   -0.3800    0.3810 ca        1 LIG     -0.270000
      9 C5          4.9350   -1.5360    0.0240 ca        1 LIG      0.202100
     10 O3          5.5750   -2.7320    0.0560 oh        1 LIG     -0.473100
     11 C6          3.6000   -1.4740   -0.3680 ca        1 LIG     -0.068600
     12 Cl          2.7610   -2.9280   -0.8120 cl        1 LIG     -0.060400
     13 C7          2.9420   -0.2660   -0.3990 ca        1 LIG      0.054700
     14 C8          1.4980   -0.2040   -0.8230 c3        1 LIG     -0.042100
     15 C9          0.5980   -0.3710    0.4030 c3        1 LIG     -0.147400
     16 C10        -0.8460   -0.3100   -0.0210 c         1 LIG      0.669100
     17 O4         -1.1290   -0.1480   -1.1900 o         1 LIG     -0.603100
     18 N          -1.8240   -0.4340    0.8980 n         1 LIG     -0.461100
     19 C11        -3.1650   -0.2560    0.5240 ca        1 LIG      0.058600
     20 C12        -3.4790    0.5190   -0.5830 ca        1 LIG     -0.189000
     21 C13        -4.8030    0.6950   -0.9520 ca        1 LIG      0.099100
     22 O5         -5.1110    1.4550   -2.0380 oh        1 LIG     -0.476100
     23 C14        -5.8170    0.0950   -0.2120 ca        1 LIG      0.110100
     24 O6         -7.1170    0.2680   -0.5750 os        1 LIG     -0.297900
     25 C15        -7.9080   -0.4610    0.3660 c3        1 LIG      0.109700
     26 C16        -5.5040   -0.6790    0.8940 ca        1 LIG     -0.229000
     27 C17        -4.1800   -0.8600    1.2600 ca        1 LIG      0.068100
     28 O7         -3.8720   -1.6200    2.3460 oh        1 LIG     -0.517100
     29 H           1.1240    4.1110    1.9240 h1        1 LIG      0.056367
     30 H1          0.8280    3.9030    0.2140 h1        1 LIG      0.056367
     31 H2          2.2840    4.7020    0.7580 h1        1 LIG      0.056367
     32 H3          5.1860    2.8000    0.6750 ho        1 LIG      0.461000
     33 H4          6.6020   -0.4310    0.6710 ha        1 LIG      0.164000
     34 H5          6.4730   -2.7760    0.3190 ho        1 LIG      0.432000
     35 H6          1.2980   -0.9890   -1.5220 hc        1 LIG      0.083200
     36 H7          1.3020    0.7420   -1.2830 hc        1 LIG      0.083200
     37 H8          0.7980    0.4140    1.1020 hc        1 LIG      0.079700
     38 H9          0.7950   -1.3170    0.8630 hc        1 LIG      0.079700
     39 H10        -1.5980   -0.6490    1.8320 hn        1 LIG      0.332500
     40 H11        -2.7270    0.9640   -1.1310 ha        1 LIG      0.181000
     41 H12        -4.4280    1.8590   -2.5360 ho        1 LIG      0.420000
     42 H13        -8.9440   -0.3540    0.1200 h1        1 LIG      0.043367
     43 H14        -7.7340   -0.0790    1.3500 h1        1 LIG      0.043367
     44 H15        -7.6380   -1.4960    0.3330 h1        1 LIG      0.043367
     45 H16        -6.2570   -1.1200    1.4450 ha        1 LIG      0.142000
     46 H17        -2.9770   -1.7420    2.5940 ho        1 LIG      0.425000
@<TRIPOS>BOND
     1    1    2 1   
     2    2    3 1   
     3    3    4 2   
     4    3    5 1   
     5    5    6 ar  
     6    5   13 ar  
     7    6    7 1   
     8    6    8 ar  
     9    8    9 ar  
    10    9   10 1   
    11    9   11 ar  
    12   11   12 1   
    13   11   13 ar  
    14   13   14 1   
    15   14   15 1   
    16   15   16 1   
    17   16   17 2   
    18   16   18 1   
    19   18   19 1   
    20   19   20 ar  
    21   19   27 ar  
    22   20   21 ar  
    23   21   22 1   
    24   21   23 ar  
    25   23   24 1   
    26   23   26 ar  
    27   24   25 1   
    28   26   27 ar  
    29   27   28 1   
    30    1   29 1   
    31    1   30 1   
    32    1   31 1   
    33    7   32 1   
    34    8   33 1   
    35   10   34 1   
    36   14   35 1   
    37   14   36 1   
    38   15   37 1   
    39   15   38 1   
    40   18   39 1   
    41   20   40 1   
    42   22   41 1   
    43   25   42 1   
    44   25   43 1   
    45   25   44 1   
    46   26   45 1   
    47   28   46 1   
@<TRIPOS>SUBSTRUCTURE
     1 LIG         1 TEMP              0 ****  ****    0 ROOT
