@<TRIPOS>MOLECULE
BXY
   20    20     1     0     0
SMALL
bcc


@<TRIPOS>ATOM
      1 O           3.1480   -0.5700    0.2590 O.h       1 LIG     -0.589800
      2 C           2.0280    0.1870    0.7230 C.3       1 LIG      0.130400
      3 C1          0.9970    0.3130   -0.4010 C.3       1 LIG      0.048100
      4 C2         -0.1610    1.2250    0.0500 C.3       1 LIG      0.081100
      5 O1         -0.3270    2.3110   -0.8630 O.h       1 LIG     -0.569800
      6 C3         -1.4030    0.3010    0.0250 C.3       1 LIG      0.053100
      7 O2         -2.2400    0.5430    1.1580 O.h       1 LIG     -0.564800
      8 C4         -0.7610   -1.1080    0.1010 C.3       1 LIG      0.296900
      9 O3          0.4380   -0.9770   -0.6980 O.2       1 LIG     -0.454600
     10 O4         -1.6350   -2.0890   -0.4600 O.h       1 LIG     -0.596800
     11 H           3.8020   -0.6500    0.9710 H         1 LIG      0.416000
     12 H1          2.3540    1.1620    1.0190 H         1 LIG      0.051200
     13 H2          1.5840   -0.3090    1.5600 H         1 LIG      0.051200
     14 H3          1.4860    0.7200   -1.2610 H         1 LIG      0.088700
     15 H4          0.0090    1.6600    1.0130 H         1 LIG      0.108700
     16 H5         -0.4840    1.9630   -1.7540 H         1 LIG      0.402000
     17 H6         -2.0310    0.4430   -0.8290 H         1 LIG      0.118700
     18 H7         -1.7240    0.4290    1.9710 H         1 LIG      0.402000
     19 H8         -0.5620   -1.4240    1.1040 H         1 LIG      0.111700
     20 H9         -1.8470   -1.8470   -1.3750 H         1 LIG      0.415000
@<TRIPOS>BOND
     1    1    2 1   
     2    3    2 1   
     3    4    3 1   
     4    4    5 1   
     5    6    4 1   
     6    7    6 1   
     7    8    6 1   
     8    8    9 1   
     9    8   10 1   
    10    9    3 1   
    11    1   11 1   
    12    2   12 1   
    13    2   13 1   
    14    3   14 1   
    15    4   15 1   
    16    5   16 1   
    17    6   17 1   
    18    7   18 1   
    19    8   19 1   
    20   10   20 1   
@<TRIPOS>SUBSTRUCTURE
     1 LIG         1 TEMP              0 ****  ****    0 ROOT
