@<TRIPOS>MOLECULE
TBG
   22    21     1     0     0
SMALL
bcc


@<TRIPOS>ATOM
      1 N          -0.1120    1.8740    0.5530 N.4       1 LIG     -0.833600
      2 CA          0.0450    0.4190    0.6840 C.3       1 LIG     -0.061500
      3 C          -1.0780   -0.2850   -0.0800 C.3       1 LIG     -0.052000
      4 C1         -1.0120    0.1040   -1.5590 C.3       1 LIG     -0.100100
      5 C2         -0.9150   -1.8010    0.0550 C.3       1 LIG     -0.100100
      6 C3         -2.4310    0.1350    0.4980 C.3       1 LIG     -0.100100
      7 C4          1.3770    0.0050    0.1140 C.        1 LIG      0.932600
      8 O           1.9550    0.7300   -0.6590 O.3       1 LIG     -0.760300
      9 OXT         1.9210   -1.1710    0.4660 O.3       1 LIG     -0.760300
     10 H1         -1.0140    2.1550    0.9390 H         1 LIG      0.443800
     11 H2         -0.0680    2.1330   -0.4320 H         1 LIG      0.443800
     12 H3          0.6370    2.3440    1.0620 H         1 LIG      0.443800
     13 HA         -0.0010    0.1460    1.7180 H         1 LIG      0.088700
     14 H          -0.0660   -0.1900   -1.9630 H         1 LIG      0.046033
     15 H4         -1.1270    1.1630   -1.6550 H         1 LIG      0.046033
     16 H5         -1.7970   -0.3900   -2.0930 H         1 LIG      0.046033
     17 H6          0.0310   -2.0950   -0.3490 H         1 LIG      0.046033
     18 H7         -1.7000   -2.2930   -0.4800 H         1 LIG      0.046033
     19 H8         -0.9620   -2.0740    1.0890 H         1 LIG      0.046033
     20 H9         -2.5460    1.1950    0.4040 H         1 LIG      0.046033
     21 H10        -2.4780   -0.1390    1.5310 H         1 LIG      0.046033
     22 H11        -3.2160   -0.3570   -0.0370 H         1 LIG      0.046033
@<TRIPOS>BOND
     1    1    2 1   
     2    2    3 1   
     3    2    7 1   
     4    3    4 1   
     5    3    5 1   
     6    3    6 1   
     7    7    8 1   
     8    7    9 1   
     9    1   10 1   
    10    1   11 1   
    11    1   12 1   
    12    2   13 1   
    13    4   14 1   
    14    4   15 1   
    15    4   16 1   
    16    5   17 1   
    17    5   18 1   
    18    5   19 1   
    19    6   20 1   
    20    6   21 1   
    21    6   22 1   
@<TRIPOS>SUBSTRUCTURE
     1 LIG         1 TEMP              0 ****  ****    0 ROOT
