@<TRIPOS>MOLECULE
DOG
   62    66     1     0     0
SMALL
bcc


@<TRIPOS>ATOM
      1 O           0.3040   -0.4340   -6.9180 O.3       1 LIG     -0.552500
      2 C          -0.0410   -0.1820   -5.7800 C.        1 LIG      0.704800
      3 C1          0.8300    0.3660   -4.7380 C.e       1 LIG     -0.234200
      4 O1         -1.2820   -0.3660   -5.2920 O.2       1 LIG     -0.416900
      5 C2         -1.2710    0.0510   -3.8980 C.3       1 LIG      0.130600
      6 C3          0.1350    0.5200   -3.6140 C.2       1 LIG     -0.078400
      7 C4          0.6560    1.0550   -2.3040 C.3       1 LIG     -0.032500
      8 C5         -0.2670    2.1720   -1.7840 C.3       1 LIG     -0.083400
      9 C6          0.6390   -0.0610   -1.2280 C.3       1 LIG     -0.091000
     10 C7          0.7740   -1.4530   -1.8500 C.3       1 LIG     -0.091100
     11 C8          1.7890    0.2390   -0.2640 C.3       1 LIG      0.146100
     12 O2          3.0290   -0.0830   -0.8960 O.h       1 LIG     -0.595800
     13 C9         -0.7080    0.1640   -0.5250 C.3       1 LIG      0.164800
     14 C10        -0.8420    1.6770   -0.4360 C.3       1 LIG     -0.116400
     15 O3         -1.7290   -0.3460   -1.3840 O.h       1 LIG     -0.595800
     16 C11        -0.8230   -0.5330    0.8080 C.3       1 LIG     -0.044700
     17 C12        -2.1380   -0.1590    1.4950 C.3       1 LIG     -0.073400
     18 C13         0.3490   -0.1720    1.7180 C.3       1 LIG     -0.041700
     19 C14         1.6500   -0.5780    1.0160 C.3       1 LIG     -0.111400
     20 C15         0.2280   -0.9350    3.0390 C.3       1 LIG     -0.035000
     21 C16         0.2470   -2.4390    2.7620 C.3       1 LIG     -0.092100
     22 C17        -1.0850   -0.5590    3.7250 C.3       1 LIG     -0.055700
     23 C18        -2.2590   -0.9240    2.8150 C.3       1 LIG     -0.073400
     24 C19        -1.1050    0.9430    4.0050 C.3       1 LIG     -0.110400
     25 C20         0.0680    1.3080    4.9150 C.3       1 LIG      0.141100
     26 O4         -0.0440    0.5930    6.1480 O.h       1 LIG     -0.595800
     27 C21         1.3830    0.9340    4.2270 C.3       1 LIG     -0.111400
     28 C22         1.4020   -0.5690    3.9480 C.3       1 LIG     -0.076400
     29 H           1.8290    0.5970   -4.8570 H         1 LIG      0.183000
     30 H1         -1.5240   -0.7710   -3.2620 H         1 LIG      0.082700
     31 H2         -1.9860    0.8260   -3.7150 H         1 LIG      0.082700
     32 H3          1.6480    1.4170   -2.4730 H         1 LIG      0.086700
     33 H4         -1.0600    2.3500   -2.4800 H         1 LIG      0.051200
     34 H5          0.2690    3.0900   -1.6620 H         1 LIG      0.051200
     35 H6          1.7310   -1.5420   -2.3210 H         1 LIG      0.047033
     36 H7          0.0030   -1.5940   -2.5790 H         1 LIG      0.047033
     37 H8          0.6820   -2.1960   -1.0850 H         1 LIG      0.047033
     38 H9          1.7610    1.2780   -0.0110 H         1 LIG      0.074700
     39 H10         3.0420   -1.0270   -1.1200 H         1 LIG      0.402000
     40 H11        -1.8670    1.9640   -0.3290 H         1 LIG      0.061700
     41 H12        -0.3340    2.0910    0.4100 H         1 LIG      0.061700
     42 H13        -1.6720    0.0900   -2.2480 H         1 LIG      0.397000
     43 H14        -0.8050   -1.5870    0.6280 H         1 LIG      0.069700
     44 H15        -2.9590   -0.4150    0.8580 H         1 LIG      0.049700
     45 H16        -2.1520    0.8930    1.6900 H         1 LIG      0.049700
     46 H17         0.3470    0.8790    1.9180 H         1 LIG      0.052700
     47 H18         2.4820   -0.3840    1.6600 H         1 LIG      0.055700
     48 H19         1.6280   -1.6220    0.7820 H         1 LIG      0.055700
     49 H20        -0.5750   -2.6950    2.1260 H         1 LIG      0.037700
     50 H21         0.1630   -2.9730    3.6860 H         1 LIG      0.037700
     51 H22         1.1660   -2.7010    2.2810 H         1 LIG      0.037700
     52 H23        -1.1690   -1.0940    4.6480 H         1 LIG      0.043700
     53 H24        -2.2460   -1.9760    2.6200 H         1 LIG      0.044700
     54 H25        -3.1780   -0.6620    3.2960 H         1 LIG      0.044700
     55 H26        -2.0240    1.2040    4.4860 H         1 LIG      0.052700
     56 H27        -1.0210    1.4790    3.0830 H         1 LIG      0.052700
     57 H28         0.0530    2.3600    5.1100 H         1 LIG      0.072700
     58 H29        -0.0310   -0.3610    5.9710 H         1 LIG      0.397000
     59 H30         2.2040    1.1890    4.8640 H         1 LIG      0.052700
     60 H31         1.4680    1.4690    3.3040 H         1 LIG      0.052700
     61 H32         2.3210   -0.8310    3.4660 H         1 LIG      0.043200
     62 H33         1.3180   -1.1040    4.8710 H         1 LIG      0.043200
@<TRIPOS>BOND
     1    1    2 2   
     2    2    3 1   
     3    2    4 1   
     4    3    6 2   
     5    4    5 1   
     6    5    6 1   
     7    6    7 1   
     8    7    8 1   
     9    7    9 1   
    10    8   14 1   
    11    9   10 1   
    12    9   11 1   
    13    9   13 1   
    14   11   12 1   
    15   11   19 1   
    16   13   14 1   
    17   13   15 1   
    18   13   16 1   
    19   16   17 1   
    20   16   18 1   
    21   17   23 1   
    22   18   19 1   
    23   18   20 1   
    24   20   21 1   
    25   20   22 1   
    26   20   28 1   
    27   22   23 1   
    28   22   24 1   
    29   24   25 1   
    30   25   26 1   
    31   25   27 1   
    32   27   28 1   
    33    3   29 1   
    34    5   30 1   
    35    5   31 1   
    36    7   32 1   
    37    8   33 1   
    38    8   34 1   
    39   10   35 1   
    40   10   36 1   
    41   10   37 1   
    42   11   38 1   
    43   12   39 1   
    44   14   40 1   
    45   14   41 1   
    46   15   42 1   
    47   16   43 1   
    48   17   44 1   
    49   17   45 1   
    50   18   46 1   
    51   19   47 1   
    52   19   48 1   
    53   21   49 1   
    54   21   50 1   
    55   21   51 1   
    56   22   52 1   
    57   23   53 1   
    58   23   54 1   
    59   24   55 1   
    60   24   56 1   
    61   25   57 1   
    62   26   58 1   
    63   27   59 1   
    64   27   60 1   
    65   28   61 1   
    66   28   62 1   
@<TRIPOS>SUBSTRUCTURE
     1 LIG         1 TEMP              0 ****  ****    0 ROOT
