@<TRIPOS>MOLECULE
FCD
   21    22     1     0     0
SMALL
bcc


@<TRIPOS>ATOM
      1 O           4.9990   -1.4520    3.0230 O.2       1 LIG     -0.332800
      2 C           5.9160   -2.2160    3.6740 C.c       1 LIG      0.277200
      3 C1          7.1110   -1.5860    4.1220 C.        1 LIG      0.827100
      4 O1          7.9740   -2.4360    4.7680 O.3       1 LIG     -0.798800
      5 C2          5.4780   -3.5160    3.7740 C.d       1 LIG     -0.319300
      6 C3          4.2120   -3.5540    3.1430 C.d       1 LIG     -0.205300
      7 C4          3.9740   -2.2790    2.7090 C.c       1 LIG      0.194200
      8 O2          7.4180   -0.3780    3.9790 O.3       1 LIG     -0.798800
      9 C5          2.8780   -1.6520    2.0020 C.a       1 LIG     -0.053500
     10 C6          2.9210   -1.6310    0.6080 C.a       1 LIG     -0.115000
     11 C7          1.8850   -1.0360   -0.1120 C.a       1 LIG     -0.132000
     12 C8          0.8070   -0.4630    0.5610 C.a       1 LIG     -0.152000
     13 C9          0.7640   -0.4840    1.9550 C.a       1 LIG     -0.132000
     14 C10         1.8000   -1.0790    2.6760 C.a       1 LIG      0.007400
     15 Cl          1.6940   -1.0750    4.4020 C.l       1 LIG     -0.116400
     16 H           5.9730   -4.3050    4.2190 H         1 LIG      0.160000
     17 H1          3.5960   -4.3740    3.0330 H         1 LIG      0.143000
     18 H2          3.7190   -2.0550    0.1100 H         1 LIG      0.172000
     19 H3          1.9170   -1.0200   -1.1430 H         1 LIG      0.126000
     20 H4          0.0410   -0.0230    0.0280 H         1 LIG      0.120000
     21 H5         -0.0340   -0.0590    2.4530 H         1 LIG      0.130000
@<TRIPOS>BOND
     1    1    2 ar  
     2    1    7 ar  
     3    2    3 1   
     4    2    5 ar  
     5    3    4 1   
     6    3    8 1   
     7    5    6 ar  
     8    6    7 ar  
     9    7    9 1   
    10    9   10 ar  
    11    9   14 ar  
    12   10   11 ar  
    13   11   12 ar  
    14   12   13 ar  
    15   13   14 ar  
    16   14   15 1   
    17    5   16 1   
    18    6   17 1   
    19   10   18 1   
    20   11   19 1   
    21   12   20 1   
    22   13   21 1   
@<TRIPOS>SUBSTRUCTURE
     1 LIG         1 TEMP              0 ****  ****    0 ROOT
