@<TRIPOS>MOLECULE
GDS
   70    69     1     0     0
SMALL
bcc


@<TRIPOS>ATOM
      1 N          -1.1030    2.3930    6.4660 N.4       1 UNK     -0.827600
      2 C          -2.3730    1.9860    5.8480 C.3       1 UNK     -0.039500
      3 C1         -3.4360    1.8760    6.9110 C.        1 UNK      0.921600
      4 O          -3.1320    1.5710    8.0400 O.3       1 UNK     -0.796800
      5 O1         -4.7200    2.1160    6.6020 O.3       1 UNK     -0.796800
      6 C2         -2.1950    0.6310    5.1620 C.3       1 UNK     -0.078400
      7 C3         -1.1150    0.7430    4.0830 C.3       1 UNK     -0.155400
      8 C4         -0.9400   -0.5920    3.4070 C.        1 UNK      0.662100
      9 O2         -1.6120   -1.5400    3.7540 O.3       1 UNK     -0.606100
     10 N1         -0.0360   -0.7330    2.4170 N.        1 UNK     -0.551900
     11 C5          0.1330   -2.0310    1.7600 C.3       1 UNK      0.017700
     12 C6          1.1820   -2.8290    2.4900 C.        1 UNK      0.606100
     13 O3          1.1220   -4.0400    2.5040 O.3       1 UNK     -0.571100
     14 C7          0.5730   -1.8150    0.3110 C.3       1 UNK     -0.033300
     15 S          -0.6890   -0.8530   -0.5670 S.3       1 UNK     -0.146100
     16 N           2.1890   -2.1970    3.1260 N.        2 GLY     -0.503900
     17 CA          3.2090   -2.9740    3.8360 C.3       2 GLY     -0.042000
     18 C           4.2120   -2.0360    4.4560 C.        2 GLY      0.878600
     19 O           4.0880   -0.8420    4.3200 O.3       2 GLY     -0.867800
     20 OXT         5.2440   -2.5280    5.1610 O.3       2 GLY     -0.867800
     21 N4          2.1890    2.1970   -3.1260 N.        2 GLY     -0.503900
     22 C16         3.2100    2.9730   -3.8350 C.3       2 GLY     -0.042000
     23 C17         4.2130    2.0350   -4.4560 C.        2 GLY      0.878600
     24 O8          4.0880    0.8410   -4.3200 O.3       2 GLY     -0.867800
     25 O9          5.2450    2.5270   -5.1600 O.3       2 GLY     -0.867800
     26 C8          1.1830    2.8290   -2.4900 C.        1 UNK      0.606100
     27 O4          1.1230    4.0400   -2.5040 O.3       1 UNK     -0.571100
     28 C9          0.1340    2.0310   -1.7600 C.3       1 UNK      0.017700
     29 N2         -0.0360    0.7330   -2.4170 N.        1 UNK     -0.551900
     30 C10         0.5730    1.8150   -0.3110 C.3       1 UNK     -0.033300
     31 S1         -0.6890    0.8540    0.5660 S.3       1 UNK     -0.146100
     32 C11        -2.3720   -1.9860   -5.8490 C.3       1 UNK     -0.039500
     33 C12        -3.4350   -1.8750   -6.9110 C.        1 UNK      0.921600
     34 O5         -3.1320   -1.5710   -8.0400 O.3       1 UNK     -0.796800
     35 O6         -4.7200   -2.1150   -6.6030 O.3       1 UNK     -0.796800
     36 N3         -1.1030   -2.3920   -6.4660 N.4       1 UNK     -0.827600
     37 C13        -2.1940   -0.6300   -5.1620 C.3       1 UNK     -0.078400
     38 C14        -1.1150   -0.7420   -4.0840 C.3       1 UNK     -0.155400
     39 C15        -0.9400    0.5920   -3.4070 C.        1 UNK      0.662100
     40 O7         -1.6120    1.5400   -3.7540 O.3       1 UNK     -0.606100
     41 H          -1.2220    3.2970    6.9240 H         1 UNK      0.460467
     42 H1         -0.3840    2.4680    5.7470 H         1 UNK      0.460467
     43 H2         -0.8220    1.6970    7.1570 H         1 UNK      0.460467
     44 H3         -2.6670    2.7160    5.1230 H         1 UNK      0.069700
     45 H4         -3.1190    0.3350    4.7120 H         1 UNK      0.086200
     46 H5         -1.9010   -0.1000    5.8860 H         1 UNK      0.086200
     47 H6         -0.1900    1.0390    4.5330 H         1 UNK      0.068200
     48 H7         -1.4090    1.4740    3.3590 H         1 UNK      0.068200
     49 H8          0.5100    0.0360    2.1360 H         1 UNK      0.331500
     50 H9         -0.7950   -2.5630    1.7750 H         1 UNK      0.127700
     51 H10         0.6970   -2.7630   -0.1690 H         1 UNK      0.083200
     52 H11         1.5020   -1.2830    0.2960 H         1 UNK      0.083200
     53 H           2.2390   -1.2140    3.1140 H         2 GLY      0.277500
     54 HA1         3.7070   -3.6240    3.1470 H         2 GLY      0.068200
     55 HA2         2.7440   -3.5570    4.6030 H         2 GLY      0.068200
     56 H24         2.2380    1.2140   -3.1140 H         2 GLY      0.277500
     57 H25         3.7080    3.6220   -3.1450 H         2 GLY      0.068200
     58 H26         2.7450    3.5570   -4.6020 H         2 GLY      0.068200
     59 H12        -0.7940    2.5640   -1.7750 H         1 UNK      0.127700
     60 H13         0.5100   -0.0360   -2.1360 H         1 UNK      0.331500
     61 H14         0.6970    2.7630    0.1690 H         1 UNK      0.083200
     62 H15         1.5010    1.2830   -0.2950 H         1 UNK      0.083200
     63 H16        -2.6660   -2.7170   -5.1250 H         1 UNK      0.069700
     64 H17        -0.8220   -1.6950   -7.1560 H         1 UNK      0.460467
     65 H18        -1.2210   -3.2960   -6.9240 H         1 UNK      0.460467
     66 H19        -0.3840   -2.4670   -5.7470 H         1 UNK      0.460467
     67 H20        -3.1190   -0.3340   -4.7120 H         1 UNK      0.086200
     68 H21        -1.9000    0.1010   -5.8860 H         1 UNK      0.086200
     69 H22        -0.1900   -1.0370   -4.5340 H         1 UNK      0.068200
     70 H23        -1.4090   -1.4730   -3.3600 H         1 UNK      0.068200
@<TRIPOS>BOND
     1    1    2 1   
     2    2    3 1   
     3    2    6 1   
     4    3    4 1   
     5    3    5 1   
     6    6    7 1   
     7    7    8 1   
     8    8    9 2   
     9    8   10 1   
    10   10   11 1   
    11   11   12 1   
    12   11   14 1   
    13   12   13 2   
    14   12   16 1   
    15   14   15 1   
    16   15   31 1   
    17   16   17 1   
    18   17   18 1   
    19   18   19 1   
    20   18   20 1   
    21   21   22 1   
    22   21   26 1   
    23   22   23 1   
    24   23   24 1   
    25   23   25 1   
    26   26   27 2   
    27   26   28 1   
    28   28   29 1   
    29   28   30 1   
    30   29   39 1   
    31   30   31 1   
    32   32   33 1   
    33   32   36 1   
    34   32   37 1   
    35   33   34 1   
    36   33   35 1   
    37   37   38 1   
    38   38   39 1   
    39   39   40 2   
    40    1   41 1   
    41    1   42 1   
    42    1   43 1   
    43    2   44 1   
    44    6   45 1   
    45    6   46 1   
    46    7   47 1   
    47    7   48 1   
    48   10   49 1   
    49   11   50 1   
    50   14   51 1   
    51   14   52 1   
    52   16   53 1   
    53   17   54 1   
    54   17   55 1   
    55   21   56 1   
    56   22   57 1   
    57   22   58 1   
    58   28   59 1   
    59   29   60 1   
    60   30   61 1   
    61   30   62 1   
    62   32   63 1   
    63   36   64 1   
    64   36   65 1   
    65   36   66 1   
    66   37   67 1   
    67   37   68 1   
    68   38   69 1   
    69   38   70 1   
@<TRIPOS>SUBSTRUCTURE
     1 UNK         1 TEMP              0 ****  ****    0 ROOT
