@<TRIPOS>MOLECULE
2G6
   66    66     1     0     0
SMALL
bcc


@<TRIPOS>ATOM
      1 C           5.0590   -1.1310   -0.7380 c3        1 LIG      0.196700
      2 C1          6.3770   -1.3200   -0.0320 ca        1 LIG     -0.099300
      3 C2          6.4130   -1.9010    1.2210 ca        1 LIG     -0.111000
      4 C3          7.6220   -2.0740    1.8690 ca        1 LIG     -0.131500
      5 C4          8.7950   -1.6650    1.2630 ca        1 LIG     -0.123000
      6 C5          8.7590   -1.0840    0.0090 ca        1 LIG     -0.131500
      7 C6          7.5510   -0.9160   -0.6410 ca        1 LIG     -0.111000
      8 C7          3.3190    0.4900   -0.9400 c         1 LIG      0.725100
      9 O           2.7650   -0.2870   -1.6930 o         1 LIG     -0.573000
     10 O1          4.5040    0.1640   -0.3890 os        1 LIG     -0.434900
     11 N           2.7490    1.6780   -0.6580 n         1 LIG     -0.493900
     12 C8          1.4600    2.0330   -1.2570 c3        1 LIG     -0.224200
     13 P           0.1150    1.6040   -0.1040 p5        1 LIG      1.571200
     14 O2          0.2920    2.3510    1.1610 o         1 LIG     -0.861300
     15 O3          0.1490    0.0220    0.1970 oh        1 LIG     -0.799400
     16 N1         -1.3660    2.0110   -0.7930 n3        1 LIG     -0.992300
     17 C9         -2.4810    1.5720    0.0570 c3        1 LIG      0.173500
     18 C10        -2.9670    0.2240   -0.4090 c         1 LIG      0.631100
     19 O4         -2.4370   -0.3180   -1.3560 o         1 LIG     -0.610100
     20 C11        -3.6230    2.5860   -0.0360 c3        1 LIG     -0.082400
     21 C12        -3.1600    3.9290    0.5320 c3        1 LIG     -0.066700
     22 C13        -4.2470    4.9810    0.3060 c3        1 LIG     -0.095100
     23 C14        -2.8950    3.7840    2.0320 c3        1 LIG     -0.095100
     24 N2         -3.9910   -0.3800    0.2270 n         1 LIG     -0.564900
     25 C15        -4.4630   -1.6900   -0.2260 c3        1 LIG      0.084000
     26 C16        -5.6240   -2.1470    0.6600 c3        1 LIG     -0.091400
     27 C17        -6.1180   -3.5160    0.1870 c3        1 LIG     -0.052000
     28 C18        -6.5930   -3.4140   -1.2640 c3        1 LIG     -0.088433
     29 C19        -4.9760   -4.5300    0.2790 c3        1 LIG     -0.088433
     30 C20        -7.2790   -3.9730    1.0720 c3        1 LIG     -0.088433
     31 H           4.3800   -1.9020   -0.4390 h1        1 LIG      0.065200
     32 H1          5.2110   -1.1800   -1.7960 h1        1 LIG      0.065200
     33 H2          5.5370   -2.2060    1.6730 ha        1 LIG      0.139000
     34 H3          7.6490   -2.5080    2.8050 ha        1 LIG      0.133500
     35 H4          9.6980   -1.7930    1.7470 ha        1 LIG      0.133000
     36 H5          9.6350   -0.7760   -0.4420 ha        1 LIG      0.133500
     37 H6          7.5250   -0.4890   -1.5800 ha        1 LIG      0.139000
     38 H7          3.1990    2.3080   -0.0490 hn        1 LIG      0.335500
     39 H8          1.3310    1.4930   -2.1720 h1        1 LIG      0.103200
     40 H9          1.4370    3.0840   -1.4560 h1        1 LIG      0.103200
     41 H10         1.0020   -0.2130    0.5940 ho        1 LIG      0.482000
     42 H11        -1.4440    1.5610   -1.7050 hn        1 LIG      0.452800
     43 H12        -2.1490    1.5000    1.0720 h1        1 LIG      0.068700
     44 H13        -4.4620    2.2310    0.5260 hc        1 LIG      0.065200
     45 H14        -3.9070    2.7110   -1.0600 hc        1 LIG      0.065200
     46 H15        -2.2610    4.2340    0.0380 hc        1 LIG      0.048700
     47 H16        -5.1460    4.6760    0.8000 hc        1 LIG      0.037533
     48 H17        -4.4330    5.0820   -0.7430 hc        1 LIG      0.037533
     49 H18        -3.9230    5.9200    0.7030 hc        1 LIG      0.037533
     50 H19        -3.7940    3.4790    2.5250 hc        1 LIG      0.037533
     51 H20        -2.5710    4.7230    2.4290 hc        1 LIG      0.037533
     52 H21        -2.1340    3.0480    2.1900 hc        1 LIG      0.037533
     53 H22        -4.4210    0.0600    0.9960 hn        1 LIG      0.326500
     54 H23        -3.6640   -2.3990   -0.1610 h1        1 LIG      0.063200
     55 H24        -4.7950   -1.6190   -1.2410 h1        1 LIG      0.063200
     56 H25        -5.2920   -2.2190    1.6750 hc        1 LIG      0.044200
     57 H26        -6.4230   -1.4380    0.5960 hc        1 LIG      0.044200
     58 H27        -5.7810   -3.0940   -1.8830 hc        1 LIG      0.036033
     59 H28        -7.3920   -2.7050   -1.3290 hc        1 LIG      0.036033
     60 H29        -6.9380   -4.3710   -1.5940 hc        1 LIG      0.036033
     61 H30        -4.6440   -4.6020    1.2940 hc        1 LIG      0.036033
     62 H31        -4.1640   -4.2100   -0.3410 hc        1 LIG      0.036033
     63 H32        -5.3220   -5.4870   -0.0520 hc        1 LIG      0.036033
     64 H33        -6.9470   -4.0450    2.0870 hc        1 LIG      0.036033
     65 H34        -7.6240   -4.9300    0.7410 hc        1 LIG      0.036033
     66 H35        -8.0780   -3.2640    1.0070 hc        1 LIG      0.036033
@<TRIPOS>BOND
     1    1    2 1   
     2    2    3 ar  
     3    3    4 ar  
     4    5    4 ar  
     5    6    5 ar  
     6    7    6 ar  
     7    7    2 ar  
     8    8   10 1   
     9    9    8 2   
    10   10    1 1   
    11   11    8 1   
    12   12   11 1   
    13   13   14 2   
    14   13   15 1   
    15   13   12 1   
    16   16   13 1   
    17   17   18 1   
    18   17   16 1   
    19   18   19 2   
    20   18   24 1   
    21   20   17 1   
    22   21   22 1   
    23   21   20 1   
    24   23   21 1   
    25   24   25 1   
    26   26   27 1   
    27   26   25 1   
    28   27   29 1   
    29   27   30 1   
    30   28   27 1   
    31    1   31 1   
    32    1   32 1   
    33    3   33 1   
    34    4   34 1   
    35    5   35 1   
    36    6   36 1   
    37    7   37 1   
    38   11   38 1   
    39   12   39 1   
    40   12   40 1   
    41   15   41 1   
    42   16   42 1   
    43   17   43 1   
    44   20   44 1   
    45   20   45 1   
    46   21   46 1   
    47   22   47 1   
    48   22   48 1   
    49   22   49 1   
    50   23   50 1   
    51   23   51 1   
    52   23   52 1   
    53   24   53 1   
    54   25   54 1   
    55   25   55 1   
    56   26   56 1   
    57   26   57 1   
    58   28   58 1   
    59   28   59 1   
    60   28   60 1   
    61   29   61 1   
    62   29   62 1   
    63   29   63 1   
    64   30   64 1   
    65   30   65 1   
    66   30   66 1   
@<TRIPOS>SUBSTRUCTURE
     1 LIG         1 TEMP              0 ****  ****    0 ROOT
