@<TRIPOS>MOLECULE
CA0
   40    42     1     0     0
SMALL
bcc


@<TRIPOS>ATOM
      1 N          -6.4010    1.1140    0.4820 nb        1 LIG     -0.798000
      2 C          -5.9840   -0.0300    0.9930 ca        1 LIG      0.657900
      3 N1         -4.7300   -0.4240    0.9130 nb        1 LIG     -0.721000
      4 C1         -3.8210    0.3290    0.3030 ca        1 LIG      0.447800
      5 C2         -4.2150    1.5560   -0.2580 ca        1 LIG     -0.209200
      6 C3         -5.5640    1.9330   -0.1460 ca        1 LIG      0.717200
      7 N2         -6.0110    3.1300   -0.6790 nh        1 LIG     -0.940500
      8 N3         -3.1120    2.1150   -0.8100 nc        1 LIG     -0.583100
      9 C4         -2.0900    1.3290   -0.6280 cd        1 LIG      0.445700
     10 N4         -2.4770    0.2130    0.0540 na        1 LIG     -0.266000
     11 P           4.1000    0.0200   -0.2030 p5        1 LIG      1.474800
     12 C5          5.8440    1.7060    0.4950 c         1 LIG      0.760100
     13 C6         -1.6150   -0.9030    0.4480 c3        1 LIG      0.213800
     14 O           5.1130   -1.2230   -0.3380 o         1 LIG     -0.810000
     15 O1          6.3780    1.4460   -0.5640 o         1 LIG     -0.627000
     16 C7         -1.6390   -2.0180   -0.6280 c3        1 LIG      0.075100
     17 O2         -2.7320   -2.9130   -0.4110 oh        1 LIG     -0.580800
     18 O3          3.9290    0.6640   -1.5250 o         1 LIG     -0.810000
     19 N5          6.3980    2.6120    1.3250 n         1 LIG     -0.626000
     20 C8         -0.2850   -2.7300   -0.3890 c3        1 LIG      0.095100
     21 O4         -0.4690   -3.8980    0.4140 oh        1 LIG     -0.604800
     22 O5          4.6980    1.0900    0.8410 os        1 LIG     -0.548500
     23 C9          0.5640   -1.6850    0.3610 c3        1 LIG      0.083100
     24 O6         -0.2310   -0.4910    0.4800 os        1 LIG     -0.437600
     25 C10         1.8390   -1.3860   -0.4300 c3        1 LIG      0.192400
     26 O7          2.6730   -0.5060    0.3260 os        1 LIG     -0.566200
     27 H          -6.6660   -0.6380    1.4730 h5        1 LIG      0.037100
     28 H1         -5.3810    3.7280   -1.1420 hn        1 LIG      0.422300
     29 H2         -6.9590    3.3830   -0.5950 hn        1 LIG      0.422300
     30 H3         -1.1290    1.5220   -0.9520 h5        1 LIG      0.160800
     31 H4         -1.9730   -1.2350    1.4000 h2        1 LIG      0.091700
     32 H5         -1.7640   -1.6520   -1.6260 h1        1 LIG      0.160700
     33 H6         -2.6750   -3.2810    0.4840 ho        1 LIG      0.404000
     34 H7          5.9650    2.8230    2.1840 hn        1 LIG      0.296000
     35 H8          7.2360    3.0630    1.0730 hn        1 LIG      0.296000
     36 H9          0.1750   -3.0560   -1.2980 h1        1 LIG      0.136700
     37 H10        -0.8860   -3.6500    1.2540 ho        1 LIG      0.396000
     38 H11         0.8470   -2.0490    1.3270 h1        1 LIG      0.073700
     39 H12         1.5820   -0.9230   -1.3590 h1        1 LIG      0.035200
     40 H13         2.3630   -2.2990   -0.6200 h1        1 LIG      0.035200
@<TRIPOS>BOND
     1    2    1 ar  
     2    3    2 ar  
     3    4    3 ar  
     4    4    5 ar  
     5    5    6 ar  
     6    6    1 ar  
     7    6    7 1   
     8    8    5 1   
     9    9    8 2   
    10   10    4 1   
    11   10    9 1   
    12   11   22 1   
    13   11   26 1   
    14   12   22 1   
    15   13   10 1   
    16   14   11 1   
    17   15   12 2   
    18   16   13 1   
    19   17   16 1   
    20   18   11 1   
    21   19   12 1   
    22   20   16 1   
    23   21   20 1   
    24   23   20 1   
    25   23   25 1   
    26   23   24 1   
    27   24   13 1   
    28   26   25 1   
    29    2   27 1   
    30    7   28 1   
    31    7   29 1   
    32    9   30 1   
    33   13   31 1   
    34   16   32 1   
    35   17   33 1   
    36   19   34 1   
    37   19   35 1   
    38   20   36 1   
    39   21   37 1   
    40   23   38 1   
    41   25   39 1   
    42   25   40 1   
@<TRIPOS>SUBSTRUCTURE
     1 LIG         1 TEMP              0 ****  ****    0 ROOT
