@<TRIPOS>MOLECULE
DCZ
   29    30     1     0     0
SMALL
bcc


@<TRIPOS>ATOM
      1 N1         -0.2340   -0.6030    1.0030 n         1 C1      -0.398000
      2 C2          0.0760    0.6760    1.2790 c         1 C1       0.840900
      3 N3          0.3130    1.0720    2.5280 nc        1 C1      -0.723100
      4 C4          0.2480    0.2120    3.5350 cd        1 C1       0.755500
      5 C5         -0.0680   -1.1370    3.2790 cd        1 C1      -0.421600
      6 C6         -0.3120   -1.5230    2.0050 cc        1 C1       0.068600
      7 O2          0.1420    1.4870    0.3700 o         1 C1      -0.631500
      8 N4          0.4950    0.6320    4.8220 nh        1 C1      -0.917800
      9 C1*        -0.4890   -1.0090   -0.3810 c3        1 C1       0.304500
     10 C2*        -1.6730   -0.2050   -0.9520 c3        1 C1      -0.132400
     11 C3*        -1.0820    0.5140   -2.1880 c3        1 C1       0.127100
     12 C4*         0.1650   -0.3500   -2.5020 c3        1 C1       0.063100
     13 O4*         0.6590   -0.7200   -1.1950 os        1 C1      -0.438600
     14 O3*        -2.0040    0.4940   -3.2800 oh        1 C1      -0.582800
     15 C5*         1.2090    0.4660   -3.2660 c3        1 C1       0.114400
     16 O5*         2.3460   -0.3520   -3.5420 oh        1 C1      -0.597800
     17 H5         -0.1130   -1.8200    4.0510 ha        1 C1       0.156000
     18 H6         -0.5550   -2.5040    1.7950 h4        1 C1       0.157000
     19 H41         0.7160    1.5750    4.9980 hn        1 C1       0.438800
     20 H42         0.4510   -0.0110    5.5660 hn        1 C1       0.438800
     21 H1*        -0.7040   -2.0570   -0.3890 h2        1 C1       0.072700
     22 H2*1       -2.0310    0.5040   -0.2350 hc        1 C1       0.081200
     23 H2*2       -2.5090   -0.8260   -1.1990 hc        1 C1       0.081200
     24 H3*        -0.8610    1.5470   -2.0210 h1        1 C1       0.120700
     25 H4*        -0.0570   -1.1960   -3.1180 h1        1 C1       0.079700
     26 H7         -2.2460   -0.4230   -3.4820 ho        1 C1       0.398000
     27 H5*1        1.5090    1.3050   -2.6740 h1        1 C1       0.068700
     28 H5*2        0.7870    0.8110   -4.1870 h1        1 C1       0.068700
     29 H5*         2.7290   -0.6650   -2.7080 ho        1 C1       0.406000
@<TRIPOS>BOND
     1    1    2 1   
     2    1    6 1   
     3    1    9 1   
     4    2    3 1   
     5    2    7 2   
     6    3    4 2   
     7    4    5 1   
     8    4    8 1   
     9    5    6 2   
    10    9   10 1   
    11    9   13 1   
    12   10   11 1   
    13   11   12 1   
    14   11   14 1   
    15   12   13 1   
    16   12   15 1   
    17   15   16 1   
    18    5   17 1   
    19    6   18 1   
    20    8   19 1   
    21    8   20 1   
    22    9   21 1   
    23   10   22 1   
    24   10   23 1   
    25   11   24 1   
    26   12   25 1   
    27   14   26 1   
    28   15   27 1   
    29   15   28 1   
    30   16   29 1   
@<TRIPOS>SUBSTRUCTURE
     1 C1          1 TEMP              0 ****  ****    0 ROOT
