@<TRIPOS>MOLECULE
CMX
   84    86     1     0     0
SMALL
bcc


@<TRIPOS>ATOM
      1 N           5.9330    1.9180   -7.7570 N.b       1 LIG     -0.814000
      2 C           4.7810    1.8540   -8.3980 C.a       1 LIG      0.605900
      3 N1          3.6600    1.5010   -7.8040 N.b       1 LIG     -0.668000
      4 C1          3.6480    1.1850   -6.5130 C.a       1 LIG      0.427800
      5 C2          4.8490    1.2430   -5.7850 C.a       1 LIG     -0.195200
      6 C3          6.0180    1.6250   -6.4630 C.a       1 LIG      0.650200
      7 N2          7.2310    1.6950   -5.7990 N.h       1 LIG     -0.916500
      8 N3          4.5600    0.8850   -4.5100 N.c       1 LIG     -0.610100
      9 C4          3.2890    0.6220   -4.4120 C.d       1 LIG      0.473700
     10 N4          2.6820    0.7960   -5.6200 N.a       1 LIG     -0.230000
     11 C5          1.2610    0.5970   -5.9120 C.3       1 LIG      0.215800
     12 C6          0.9710   -0.8870   -6.2460 C.3       1 LIG      0.103100
     13 O           1.1920   -1.1520   -7.6320 O.h       1 LIG     -0.663800
     14 C7         -0.5340   -1.0120   -5.8930 C.3       1 LIG      0.185100
     15 O1         -1.3350   -0.8890   -7.0700 O.2       1 LIG     -0.561200
     16 P          -2.1950   -2.2440   -7.1910 P.5       1 LIG      1.319900
     17 O2         -3.0470   -2.3970   -5.9900 O.3       1 LIG     -0.922833
     18 O3         -3.1260   -2.1740   -8.5030 O.3       1 LIG     -0.922833
     19 O4         -1.1990   -3.5040   -7.3060 O.3       1 LIG     -0.922833
     20 C8         -0.7910    0.1640   -4.9320 C.3       1 LIG      0.084100
     21 O5          0.4610    0.8410   -4.7350 O.2       1 LIG     -0.407600
     22 C9         -1.3140   -0.3610   -3.5940 C.3       1 LIG      0.163400
     23 O6         -1.5430    0.7350   -2.7070 O.2       1 LIG     -0.605200
     24 P1         -2.0890    0.1120   -1.3270 P.5       1 LIG      1.596800
     25 O7         -1.0770   -0.8120   -0.7690 O.3       1 LIG     -0.871500
     26 O8         -3.4550   -0.6920   -1.6050 O.3       1 LIG     -0.871500
     27 O9         -2.3690    1.2990   -0.2760 O.2       1 LIG     -0.809800
     28 P2         -2.9100    0.6080    1.0730 P.5       1 LIG      1.603800
     29 O10        -4.1530   -0.1390    0.7800 O.3       1 LIG     -0.889000
     30 O11        -1.7950   -0.4060    1.6400 O.3       1 LIG     -0.889000
     31 O12        -3.2120    1.7430    2.1740 O.2       1 LIG     -0.573200
     32 C10        -3.9940    2.0980    4.4330 C.3       1 LIG     -0.109000
     33 C11        -3.6860    1.0700    3.3420 C.3       1 LIG      0.232400
     34 C12        -2.7210    2.8760    4.7740 C.3       1 LIG     -0.088600
     35 C13        -5.0660    3.0670    3.9320 C.3       1 LIG     -0.088600
     36 C14        -4.5010    1.3770    5.6840 C.3       1 LIG      0.093100
     37 O13        -5.7600    0.7630    5.4020 O.h       1 LIG     -0.600800
     38 C15        -3.5070    0.3200    6.0920 C.        1 LIG      0.627100
     39 O14        -3.7780   -0.8530    5.9510 O.3       1 LIG     -0.649100
     40 N5         -2.3180    0.6800    6.6150 N.        1 LIG     -0.570900
     41 C16        -1.3850   -0.3450    7.0870 C.3       1 LIG      0.106000
     42 C17        -0.1210    0.3240    7.6290 C.3       1 LIG     -0.169400
     43 C18         0.8380   -0.7310    8.1150 C.        1 LIG      0.658100
     44 O15         0.5400   -1.9040    8.0350 O.3       1 LIG     -0.636100
     45 N6          2.0270   -0.3710    8.6370 N.        1 LIG     -0.578900
     46 C19         2.9600   -1.3970    9.1090 C.3       1 LIG      0.090000
     47 C20         4.2240   -0.7270    9.6510 C.3       1 LIG     -0.078400
     48 C21         5.1980   -1.7990   10.1440 C.3       1 LIG     -0.187400
     49 C22         6.4430   -1.1380   10.6780 C.        1 LIG      0.906600
     50 O16         6.5410    0.0650   10.6650 O.3       1 LIG     -0.861800
     51 O17         7.4430   -1.8880   11.1670 O.3       1 LIG     -0.861800
     52 H           4.7580    2.0900   -9.4020 H         1 LIG      0.011100
     53 H1          8.0440    1.9640   -6.2850 H         1 LIG      0.385300
     54 H2          7.2810    1.4760   -4.8400 H         1 LIG      0.385300
     55 H3          2.8110    0.3250   -3.5470 H         1 LIG      0.161800
     56 H4          1.0290    1.2580   -6.7210 H         1 LIG      0.085700
     57 H5          1.5970   -1.5770   -5.7210 H         1 LIG      0.024700
     58 H6          0.6470   -0.5530   -8.1660 H         1 LIG      0.499000
     59 H7         -0.7810   -1.9580   -5.4580 H         1 LIG      0.086700
     60 H8         -1.5220    0.8310   -5.3390 H         1 LIG      0.084700
     61 H9         -0.5910   -1.0230   -3.1640 H         1 LIG      0.039200
     62 H10        -2.2320   -0.8880   -3.7530 H         1 LIG      0.039200
     63 H11        -2.9360    0.3920    3.6920 H         1 LIG     -0.000800
     64 H12        -4.5760    0.5250    3.1040 H         1 LIG     -0.000800
     65 H13        -2.3660    3.3800    3.9000 H         1 LIG      0.046867
     66 H14        -1.9710    2.1970    5.1230 H         1 LIG      0.046867
     67 H15        -2.9360    3.5940    5.5370 H         1 LIG      0.046867
     68 H16        -4.7110    3.5710    3.0570 H         1 LIG      0.046867
     69 H17        -5.2820    3.7860    4.6950 H         1 LIG      0.046867
     70 H18        -5.9560    2.5220    3.6930 H         1 LIG      0.046867
     71 H19        -4.6180    2.0830    6.4800 H         1 LIG      0.064700
     72 H20        -5.6530    0.1230    4.6810 H         1 LIG      0.419000
     73 H21        -2.0770    1.6320    6.6800 H         1 LIG      0.337500
     74 H22        -1.1260   -0.9920    6.2750 H         1 LIG      0.058200
     75 H23        -1.8470   -0.9160    7.8650 H         1 LIG      0.058200
     76 H24        -0.3800    0.9710    8.4410 H         1 LIG      0.069200
     77 H25         0.3420    0.8950    6.8510 H         1 LIG      0.069200
     78 H26         2.2690    0.5810    8.7010 H         1 LIG      0.304500
     79 H27         3.2190   -2.0440    8.2970 H         1 LIG      0.036700
     80 H28         2.4980   -1.9680    9.8870 H         1 LIG      0.036700
     81 H29         3.9650   -0.0800   10.4630 H         1 LIG      0.046200
     82 H30         4.6860   -0.1550    8.8730 H         1 LIG      0.046200
     83 H31         5.4580   -2.4460    9.3320 H         1 LIG      0.023200
     84 H32         4.7360   -2.3710   10.9210 H         1 LIG      0.023200
@<TRIPOS>BOND
     1    1    2 ar  
     2    1    6 ar  
     3    2    3 ar  
     4    3    4 ar  
     5    4    5 ar  
     6    4   10 1   
     7    5    6 ar  
     8    5    8 1   
     9    6    7 1   
    10    8    9 2   
    11    9   10 1   
    12   10   11 1   
    13   11   12 1   
    14   11   21 1   
    15   12   13 1   
    16   12   14 1   
    17   14   15 1   
    18   14   20 1   
    19   15   16 1   
    20   16   17 1   
    21   16   18 1   
    22   16   19 1   
    23   20   21 1   
    24   20   22 1   
    25   22   23 1   
    26   23   24 1   
    27   24   25 1   
    28   24   26 1   
    29   24   27 1   
    30   27   28 1   
    31   28   29 1   
    32   28   30 1   
    33   28   31 1   
    34   31   33 1   
    35   32   33 1   
    36   32   34 1   
    37   32   35 1   
    38   32   36 1   
    39   36   37 1   
    40   36   38 1   
    41   38   39 2   
    42   38   40 1   
    43   40   41 1   
    44   41   42 1   
    45   42   43 1   
    46   43   44 2   
    47   43   45 1   
    48   45   46 1   
    49   46   47 1   
    50   47   48 1   
    51   48   49 1   
    52   49   50 1   
    53   49   51 1   
    54    2   52 1   
    55    7   53 1   
    56    7   54 1   
    57    9   55 1   
    58   11   56 1   
    59   12   57 1   
    60   13   58 1   
    61   14   59 1   
    62   20   60 1   
    63   22   61 1   
    64   22   62 1   
    65   33   63 1   
    66   33   64 1   
    67   34   65 1   
    68   34   66 1   
    69   34   67 1   
    70   35   68 1   
    71   35   69 1   
    72   35   70 1   
    73   36   71 1   
    74   37   72 1   
    75   40   73 1   
    76   41   74 1   
    77   41   75 1   
    78   42   76 1   
    79   42   77 1   
    80   45   78 1   
    81   46   79 1   
    82   46   80 1   
    83   47   81 1   
    84   47   82 1   
    85   48   83 1   
    86   48   84 1   
@<TRIPOS>SUBSTRUCTURE
     1 LIG         1 TEMP              0 ****  ****    0 ROOT
