@<TRIPOS>MOLECULE
2ML
   25    24     1     0     0
SMALL
bcc


@<TRIPOS>ATOM
      1 N           1.5500    0.7510   -0.4900 N.4       1 LIG     -0.836600
      2 C           0.5910   -0.3510   -0.6430 C.3       1 LIG     -0.057800
      3 C1          0.2470   -0.9220    0.7320 C.3       1 LIG     -0.081400
      4 C2          1.2110   -1.4480   -1.5110 C.3       1 LIG     -0.105100
      5 C3         -0.2820    0.1960    1.6310 C.3       1 LIG     -0.087700
      6 C4         -1.1450   -0.4060    2.7420 C.3       1 LIG     -0.089600
      7 C5          0.8940    0.9510    2.2530 C.3       1 LIG     -0.089600
      8 C6         -0.6620    0.1610   -1.3030 C.        1 LIG      0.942600
      9 O          -1.7270   -0.3530   -1.0570 O.3       1 LIG     -0.758800
     10 O1         -0.5960    1.1900   -2.1620 O.3       1 LIG     -0.758800
     11 H           2.3980    0.4040   -0.0430 H         1 LIG      0.443133
     12 H1          1.1370    1.4840    0.0870 H         1 LIG      0.443133
     13 H2          1.7800    1.1310   -1.4080 H         1 LIG      0.443133
     14 H3          1.1250   -1.3470    1.1710 H         1 LIG      0.065700
     15 H4         -0.5020   -1.6790    0.6260 H         1 LIG      0.065700
     16 H5          2.1020   -1.8130   -1.0430 H         1 LIG      0.058033
     17 H6          1.4520   -1.0480   -2.4740 H         1 LIG      0.058033
     18 H7          0.5130   -2.2510   -1.6240 H         1 LIG      0.058033
     19 H8         -0.8720    0.8720    1.0480 H         1 LIG      0.080700
     20 H9         -0.5550   -1.0820    3.3250 H         1 LIG      0.034700
     21 H10        -1.9680   -0.9340    2.3080 H         1 LIG      0.034700
     22 H11        -1.5160    0.3770    3.3700 H         1 LIG      0.034700
     23 H12         1.4840    0.2750    2.8360 H         1 LIG      0.034700
     24 H13         0.5230    1.7340    2.8810 H         1 LIG      0.034700
     25 H14         1.4980    1.3720    1.4770 H         1 LIG      0.034700
@<TRIPOS>BOND
     1    1    2 1   
     2    2    3 1   
     3    2    4 1   
     4    2    8 1   
     5    3    5 1   
     6    5    6 1   
     7    5    7 1   
     8    8    9 1   
     9    8   10 1   
    10    1   11 1   
    11    1   12 1   
    12    1   13 1   
    13    3   14 1   
    14    3   15 1   
    15    4   16 1   
    16    4   17 1   
    17    4   18 1   
    18    5   19 1   
    19    6   20 1   
    20    6   21 1   
    21    6   22 1   
    22    7   23 1   
    23    7   24 1   
    24    7   25 1   
@<TRIPOS>SUBSTRUCTURE
     1 LIG         1 TEMP              0 ****  ****    0 ROOT
