@<TRIPOS>MOLECULE
16W
   43    46     1     0     0
SMALL
bcc


@<TRIPOS>ATOM
      1 C          -3.9420    0.6360    0.6180 ca        1 LIG     -0.149000
      2 C1         -3.0320    0.3600   -0.3910 ca        1 LIG      0.124100
      3 C2         -3.4550    0.3150   -1.7120 ca        1 LIG     -0.196000
      4 C3          2.5680   -3.5400    0.8950 ca        1 LIG      0.694900
      5 C4          2.3940   -1.3440    0.2330 ca        1 LIG      0.471800
      6 C5          1.0580   -1.5810   -0.1470 ca        1 LIG     -0.479500
      7 C6          0.5360   -2.8770    0.0230 ca        1 LIG      0.753200
      8 C7          0.5500   -0.3640   -0.6510 cc        1 LIG      0.361900
      9 C8         -0.8450   -0.1430   -1.1770 c3        1 LIG      0.121100
     10 C9          5.7440    1.9880   -0.8770 c3        1 LIG      0.125900
     11 C10         5.0060    2.6010    1.3220 c3        1 LIG      0.125900
     12 C11         3.6920    1.8350    1.1470 c3        1 LIG     -0.127400
     13 C12         3.9180    0.6610    0.1900 c3        1 LIG      0.080000
     14 N           3.1030   -2.3480    0.7460 nb        1 LIG     -0.741000
     15 N1          1.3230   -3.8110    0.5480 nb        1 LIG     -0.795000
     16 N2          2.6490   -0.0330   -0.0420 na        1 LIG      0.003200
     17 N3          1.4900    0.5350   -0.5850 nd        1 LIG     -0.500100
     18 N4         -0.7660   -3.1680   -0.3320 nh        1 LIG     -0.939500
     19 O          -1.7270    0.1350   -0.0870 os        1 LIG     -0.342900
     20 O1          5.4700    3.0450    0.0450 os        1 LIG     -0.411600
     21 C13         4.4590    1.1970   -1.1390 c3        1 LIG     -0.127400
     22 C14        -4.7820    0.5450   -2.0190 ca        1 LIG     -0.089000
     23 C15        -5.6890    0.8200   -1.0120 ca        1 LIG     -0.152000
     24 C16        -5.2700    0.8650    0.3060 ca        1 LIG      0.045400
     25 Cl         -6.4120    1.2030    1.5680 cl        1 LIG     -0.085400
     26 H          -3.6290    0.6700    1.6010 ha        1 LIG      0.165000
     27 H1         -2.7790    0.1100   -2.4640 ha        1 LIG      0.143000
     28 H2          3.1440   -4.2940    1.3000 h5        1 LIG      0.053100
     29 H3         -1.1770   -1.0220   -1.6890 h1        1 LIG      0.064200
     30 H4         -0.8440    0.6850   -1.8550 h1        1 LIG      0.064200
     31 H5          6.4860    1.3370   -0.4640 h1        1 LIG      0.052200
     32 H6          6.1040    2.4000   -1.7960 h1        1 LIG      0.052200
     33 H7          4.8440    3.4470    1.9570 h1        1 LIG      0.052200
     34 H8          5.7380    1.9590    1.7650 h1        1 LIG      0.052200
     35 H9          2.9480    2.4890    0.7420 hc        1 LIG      0.068700
     36 H10         3.3610    1.4670    2.0960 hc        1 LIG      0.068700
     37 H11         4.6210   -0.0230    0.6170 h1        1 LIG      0.090700
     38 H12        -1.3390   -2.4670   -0.7200 hn        1 LIG      0.436300
     39 H13        -1.1220   -4.0760   -0.1970 hn        1 LIG      0.436300
     40 H14         3.7300    1.8370   -1.5900 hc        1 LIG      0.068700
     41 H15         4.6680    0.3800   -1.7980 hc        1 LIG      0.068700
     42 H16        -5.0970    0.5120   -3.0010 ha        1 LIG      0.141000
     43 H17        -6.6800    0.9920   -1.2440 ha        1 LIG      0.151000
@<TRIPOS>BOND
     1    1   24 ar  
     2    2    1 ar  
     3    3   22 ar  
     4    3    2 ar  
     5    4   14 ar  
     6    5   16 1   
     7    6    5 ar  
     8    6    8 1   
     9    7    6 ar  
    10    8   17 2   
    11    9    8 1   
    12   10   20 1   
    13   11   20 1   
    14   12   11 1   
    15   13   21 1   
    16   13   12 1   
    17   14    5 ar  
    18   15    4 ar  
    19   15    7 ar  
    20   16   17 1   
    21   16   13 1   
    22   18    7 1   
    23   19    2 1   
    24   19    9 1   
    25   21   10 1   
    26   22   23 ar  
    27   23   24 ar  
    28   24   25 1   
    29    1   26 1   
    30    3   27 1   
    31    4   28 1   
    32    9   29 1   
    33    9   30 1   
    34   10   31 1   
    35   10   32 1   
    36   11   33 1   
    37   11   34 1   
    38   12   35 1   
    39   12   36 1   
    40   13   37 1   
    41   18   38 1   
    42   18   39 1   
    43   21   40 1   
    44   21   41 1   
    45   22   42 1   
    46   23   43 1   
@<TRIPOS>SUBSTRUCTURE
     1 LIG         1 TEMP              0 ****  ****    0 ROOT
