@<TRIPOS>MOLECULE
SEB
   30    30     1     0     0
SMALL
bcc


@<TRIPOS>ATOM
      1 C1         -0.9490    0.1000    4.1250 C.        1 <1>      0.939600
      2 N1          1.4650    0.0740    3.8480 N.4       1 <1>     -0.823600
      3 C2         -1.7840   -0.6340   -4.1330 C.a       1 <1>     -0.124000
      4 C3         -1.5080   -0.1980   -2.8510 C.a       1 <1>     -0.113500
      5 C4         -0.9140   -0.3380   -5.1660 C.a       1 <1>     -0.114000
      6 C5          0.2300    0.3940   -4.9170 C.a       1 <1>     -0.124000
      7 C6          0.5040    0.8340   -3.6350 C.a       1 <1>     -0.113500
      8 C7         -0.3620    0.5330   -2.6010 C.a       1 <1>     -0.095300
      9 C8         -0.0610    1.0090   -1.2030 C.3       1 <1>     -0.298300
     10 O1          2.2370   -0.3340   -0.8550 O.3       1 <1>     -0.641800
     11 O2          0.1430   -1.4020   -0.0410 O.3       1 <1>     -0.641800
     12 S1          0.9170   -0.2470   -0.3350 S.6       1 <1>      1.598500
     13 O3          1.1350    0.3710    1.0370 O.2       1 <1>     -0.622500
     14 C9          0.0430   -0.0470    1.8580 C.3       1 <1>      0.178400
     15 C10         0.2020    0.5420    3.2600 C.3       1 <1>     -0.079500
     16 O4         -0.8660   -0.9200    4.7660 O.3       1 <1>     -0.751800
     17 O5         -2.0670    0.8410    4.1850 O.3       1 <1>     -0.751800
     18 H1          1.5710    0.4670    4.7830 H         1 <1>      0.449133
     19 H2          2.2440    0.3740    3.2630 H         1 <1>      0.449133
     20 H3          1.4560   -0.9440    3.9060 H         1 <1>      0.449133
     21 H4         -2.6390   -1.1810   -4.3190 H         1 <1>      0.140500
     22 H5         -2.1580   -0.4180   -2.0800 H         1 <1>      0.144000
     23 H6         -1.1200   -0.6640   -6.1230 H         1 <1>      0.139000
     24 H7          0.8810    0.6130   -5.6880 H         1 <1>      0.140500
     25 H8          1.3550    1.3870   -3.4500 H         1 <1>      0.144000
     26 H9         -0.9780    1.1730   -0.6770 H         1 <1>      0.134700
     27 H10         0.4930    1.9230   -1.2490 H         1 <1>      0.134700
     28 H11         0.0320   -1.1150    1.9190 H         1 <1>      0.077700
     29 H12        -0.8760    0.2960    1.4300 H         1 <1>      0.077700
     30 H13         0.2110    1.6100    3.1980 H         1 <1>      0.095700
@<TRIPOS>BOND
     1    1   15 1   
     2    1   16 1   
     3    1   17 1   
     4    2   15 1   
     5    3    4 ar  
     6    3    5 ar  
     7    4    8 ar  
     8    5    6 ar  
     9    6    7 ar  
    10    7    8 ar  
    11    8    9 1   
    12    9   12 1   
    13   10   12 2   
    14   11   12 2   
    15   12   13 1   
    16   13   14 1   
    17   14   15 1   
    18    2   18 1   
    19    2   19 1   
    20    2   20 1   
    21    3   21 1   
    22    4   22 1   
    23    5   23 1   
    24    6   24 1   
    25    7   25 1   
    26    9   26 1   
    27    9   27 1   
    28   14   28 1   
    29   14   29 1   
    30   15   30 1   
@<TRIPOS>SUBSTRUCTURE
     1 <1>         1 TEMP              0 ****  ****    0 ROOT
