@<TRIPOS>MOLECULE
ANN
   18    18     1     0     0
SMALL
bcc


@<TRIPOS>ATOM
      1 C           0.8660   -0.0010    3.6410 c3        1 LIG      0.123700
      2 O          -0.4560   -0.0000    3.1010 os        1 LIG     -0.346900
      3 C1         -0.3280   -0.0000    1.7500 ca        1 LIG      0.082100
      4 C2         -1.4620    0.0000    0.9460 ca        1 LIG     -0.205000
      5 C3         -1.3370    0.0000   -0.4240 ca        1 LIG     -0.081000
      6 C4         -0.0670    0.0000   -1.0080 ca        1 LIG     -0.149600
      7 C5          1.0700   -0.0000   -0.1960 ca        1 LIG     -0.081000
      8 C6          0.9360    0.0040    1.1740 ca        1 LIG     -0.205000
      9 C7          0.0720   -0.0000   -2.4760 c         1 LIG      0.909200
     10 O1          1.2970   -0.0000   -3.0360 o         1 LIG     -0.834300
     11 O2         -0.9180   -0.0000   -3.1800 o         1 LIG     -0.834300
     12 H           0.8150   -0.0010    4.7100 h1        1 LIG      0.028367
     13 H1          1.3880    0.8720    3.3090 h1        1 LIG      0.028367
     14 H2          1.3860   -0.8750    3.3090 h1        1 LIG      0.028367
     15 H3         -2.3990    0.0000    1.3780 ha        1 LIG      0.116500
     16 H4         -2.1800    0.0000   -1.0200 ha        1 LIG      0.152000
     17 H5          2.0100   -0.0030   -0.6230 ha        1 LIG      0.152000
     18 H6          1.7760    0.0100    1.7740 ha        1 LIG      0.116500
@<TRIPOS>BOND
     1    1    2 1   
     2    2    3 1   
     3    3    4 ar  
     4    3    8 ar  
     5    4    5 ar  
     6    5    6 ar  
     7    6    7 ar  
     8    6    9 1   
     9    7    8 ar  
    10    9   10 1   
    11    9   11 1   
    12    1   12 1   
    13    1   13 1   
    14    1   14 1   
    15    4   15 1   
    16    5   16 1   
    17    7   17 1   
    18    8   18 1   
@<TRIPOS>SUBSTRUCTURE
     1 LIG         1 TEMP              0 ****  ****    0 ROOT
