@<TRIPOS>MOLECULE
PJE
   28    28     1     0     0
SMALL
bcc


@<TRIPOS>ATOM
      1 C           0.1550   -1.1280   -0.2780 c3        1 LIG      0.192700
      2 C1          1.2470   -0.0940   -0.1880 c2        1 LIG     -0.342200
      3 C2          2.5130   -0.4750   -0.0340 ce        1 LIG     -0.103200
      4 C3          3.5780    0.5340    0.0530 c         1 LIG      0.906800
      5 O           4.8600    0.1480    0.2080 o         1 LIG     -0.785300
      6 C4         -0.9090   -0.8410    0.7840 c3        1 LIG     -0.096400
      7 C5         -1.5930    0.4910    0.4730 c3        1 LIG     -0.154700
      8 C6         -2.6720    0.8070    1.5350 c3        1 LIG     -0.093400
      9 C7         -3.9440    0.2350    0.8720 c3        1 LIG      0.083000
     10 N          -3.6790    0.2620   -0.5710 n         1 LIG     -0.551900
     11 C8         -2.3660    0.3990   -0.8240 c         1 LIG      0.698500
     12 O1         -1.8730    0.4430   -1.9310 o         1 LIG     -0.704500
     13 N1          0.7250   -2.4630   -0.0510 n4        1 LIG     -0.853600
     14 O2          3.3030    1.7160   -0.0140 o         1 LIG     -0.785300
     15 H          -0.2920   -1.0910   -1.2500 hx        1 LIG      0.083700
     16 H1          1.0140    0.9100   -0.2460 ha        1 LIG      0.163000
     17 H2          2.7470   -1.4780    0.0240 ha        1 LIG      0.095000
     18 H3         -0.4460   -0.7880    1.7470 hc        1 LIG      0.094200
     19 H4         -1.6370   -1.6250    0.7810 hc        1 LIG      0.094200
     20 H5         -0.8200    1.2300    0.4400 hc        1 LIG      0.083700
     21 H6         -2.7590    1.8610    1.7010 hc        1 LIG      0.073200
     22 H7         -2.4640    0.3950    2.5000 hc        1 LIG      0.073200
     23 H8         -4.7940    0.8410    1.1080 h1        1 LIG      0.059700
     24 H9         -4.1620   -0.7540    1.2180 h1        1 LIG      0.059700
     25 H10        -4.3740    0.1890   -1.2650 hn        1 LIG      0.347500
     26 H11         1.1510   -2.4980    0.8750 hn        1 LIG      0.454800
     27 H12         1.4340   -2.6550   -0.7590 hn        1 LIG      0.454800
     28 H13        -0.0140   -3.1630   -0.1120 hn        1 LIG      0.454800
@<TRIPOS>BOND
     1    1    2 1   
     2    1   13 1   
     3    3    2 2   
     4    4    3 1   
     5    5    4 1   
     6    6    1 1   
     7    7   11 1   
     8    7    6 1   
     9    8    7 1   
    10    9    8 1   
    11    9   10 1   
    12   10   11 1   
    13   11   12 2   
    14   14    4 1   
    15    1   15 1   
    16    2   16 1   
    17    3   17 1   
    18    6   18 1   
    19    6   19 1   
    20    7   20 1   
    21    8   21 1   
    22    8   22 1   
    23    9   23 1   
    24    9   24 1   
    25   10   25 1   
    26   13   26 1   
    27   13   27 1   
    28   13   28 1   
@<TRIPOS>SUBSTRUCTURE
     1 LIG         1 TEMP              0 ****  ****    0 ROOT
