@<TRIPOS>MOLECULE
MRK
   35    37     1     0     0
SMALL
bcc


@<TRIPOS>ATOM
      1 S           2.1870   -0.4020   -4.6910 ss        1 LIG      0.018700
      2 C           1.7010    0.1750   -6.3110 cc        1 LIG     -0.319400
      3 C1          0.4340    0.5860   -6.0620 cd        1 LIG      0.354200
      4 N          -0.0400    0.4550   -4.8380 nd        1 LIG     -0.687000
      5 C2          0.6980   -0.0500   -3.8700 cc        1 LIG      0.484300
      6 N1          0.3680   -0.2540   -2.5360 n         1 LIG     -0.516400
      7 C3         -0.8540    0.0880   -2.0840 c         1 LIG      0.693700
      8 O          -1.6680    0.5770   -2.8440 o         1 LIG     -0.619100
      9 C4         -2.5120    0.1150   -0.2230 ca        1 LIG      0.293600
     10 C5         -1.2040   -0.1280   -0.6700 ca        1 LIG     -0.262600
     11 C6         -0.2350   -0.5760    0.2310 ca        1 LIG      0.038000
     12 C7         -0.5700   -0.7770    1.5580 ca        1 LIG     -0.168100
     13 C8         -1.8720   -0.5390    1.9950 ca        1 LIG      0.253900
     14 F          -2.1930   -0.7380    3.2930 f         1 LIG     -0.124900
     15 C9         -2.8340   -0.0910    1.1110 ca        1 LIG     -0.291000
     16 S1          0.6490   -1.3430    2.6960 ss        1 LIG     -0.150200
     17 N2          1.7690    0.2790    4.6650 na        1 LIG     -0.162900
     18 C10         0.9650    0.1510    3.5740 cc        1 LIG      0.414800
     19 N3          0.4600    1.3290    3.2910 nd        1 LIG     -0.642000
     20 C11         0.9230    2.2330    4.1700 cd        1 LIG      0.290200
     21 C12         1.7380    1.6040    5.0340 cc        1 LIG     -0.243600
     22 C13         2.5280   -0.7900    5.3190 c3        1 LIG      0.009600
     23 N4         -3.4830    0.5610   -1.1140 nh        1 LIG     -0.842200
     24 H           2.2370    0.1910   -7.1930 h4        1 LIG      0.180000
     25 H1         -0.1460    0.9920   -6.8120 h4        1 LIG      0.042100
     26 H2          1.0280   -0.6490   -1.9210 hn        1 LIG      0.345500
     27 H3          0.7280   -0.7560   -0.0920 ha        1 LIG      0.169000
     28 H4         -3.7940    0.0910    1.4430 ha        1 LIG      0.155000
     29 H5          0.6920    3.2390    4.1800 h4        1 LIG      0.044100
     30 H6          2.2440    2.0330    5.8240 h4        1 LIG      0.178000
     31 H7          2.3540   -1.7140    4.8090 h1        1 LIG      0.062367
     32 H8          2.2120   -0.8800    6.3370 h1        1 LIG      0.062367
     33 H9          3.5720   -0.5560    5.2890 h1        1 LIG      0.062367
     34 H10        -3.2530    0.7070   -2.0600 hn        1 LIG      0.438800
     35 H11        -4.4000    0.7310   -0.7980 hn        1 LIG      0.438800
@<TRIPOS>BOND
     1    1    2 ar  
     2    1    5 ar  
     3    2    3 ar  
     4    3    4 ar  
     5    4    5 ar  
     6    5    6 1   
     7    6    7 1   
     8    7    8 2   
     9    7   10 1   
    10    9   10 ar  
    11    9   15 ar  
    12    9   23 1   
    13   10   11 ar  
    14   11   12 ar  
    15   12   13 ar  
    16   12   16 1   
    17   13   14 1   
    18   13   15 ar  
    19   16   18 1   
    20   17   18 ar  
    21   17   21 ar  
    22   17   22 1   
    23   18   19 ar  
    24   19   20 ar  
    25   20   21 ar  
    26    2   24 1   
    27    3   25 1   
    28    6   26 1   
    29   11   27 1   
    30   15   28 1   
    31   20   29 1   
    32   21   30 1   
    33   22   31 1   
    34   22   32 1   
    35   22   33 1   
    36   23   34 1   
    37   23   35 1   
@<TRIPOS>SUBSTRUCTURE
     1 LIG         1 TEMP              0 ****  ****    0 ROOT
