@<TRIPOS>MOLECULE
TRT
   61    61     1     0     0
SMALL
bcc


@<TRIPOS>ATOM
      1 C           3.8710   -0.4090   -7.2280 C.3       1 LIG      0.118700
      2 O           2.4440   -0.3480   -7.2050 O.2       1 LIG     -0.424600
      3 C1          2.0930    0.9690   -6.7780 C.3       1 LIG      0.125400
      4 C2          0.5700    1.1020   -6.7320 C.3       1 LIG      0.128400
      5 O1          0.0360    0.1460   -5.8130 O.2       1 LIG     -0.430600
      6 C3         -1.3820    0.3200   -5.8140 C.3       1 LIG      0.128400
      7 C4         -2.0180   -0.6780   -4.8450 C.3       1 LIG      0.127400
      8 O2         -1.5120   -0.4520   -3.5280 O.2       1 LIG     -0.427600
      9 C5         -2.1410   -1.4100   -2.6750 C.3       1 LIG      0.126400
     10 C6         -1.6400   -1.2230   -1.2410 C.3       1 LIG      0.124400
     11 O3         -1.9600    0.0950   -0.7940 O.2       1 LIG     -0.333900
     12 C7         -1.4930    0.2030    0.4770 C.a       1 LIG      0.124100
     13 C8         -1.6590    1.3870    1.1810 C.a       1 LIG     -0.180000
     14 C9         -1.1840    1.4930    2.4730 C.a       1 LIG     -0.098500
     15 C10        -0.8540   -0.8720    1.0760 C.a       1 LIG     -0.180000
     16 C11        -0.3750   -0.7590    2.3670 C.a       1 LIG     -0.098500
     17 C12        -0.5430    0.4210    3.0660 C.a       1 LIG     -0.101300
     18 C13        -0.0250    0.5400    4.4760 C.3       1 LIG      0.010300
     19 C14         1.0010    1.6720    4.5490 C.3       1 LIG     -0.087100
     20 C15        -1.1880    0.8450    5.4220 C.3       1 LIG     -0.087100
     21 C16         0.6360   -0.7750    4.8890 C.3       1 LIG     -0.064400
     22 C17         1.4190   -0.5670    6.1870 C.3       1 LIG     -0.047000
     23 C18         0.5770    0.2570    7.1640 C.3       1 LIG     -0.088100
     24 C19         1.7400   -1.9250    6.8130 C.3       1 LIG     -0.088100
     25 C20         2.7220    0.1750    5.8840 C.3       1 LIG     -0.088100
     26 H           4.1810   -1.3830   -7.5440 H         1 LIG      0.033700
     27 H1          4.2520   -0.2140   -6.2470 H         1 LIG      0.033700
     28 H2          4.2480    0.3240   -7.9100 H         1 LIG      0.033700
     29 H3          2.4930    1.6850   -7.4650 H         1 LIG      0.039700
     30 H4          2.4960    1.1470   -5.8030 H         1 LIG      0.039700
     31 H5          0.1670    0.9230   -7.7070 H         1 LIG      0.041200
     32 H6          0.3070    2.0890   -6.4130 H         1 LIG      0.041200
     33 H7         -1.7620    0.1510   -6.8000 H         1 LIG      0.045700
     34 H8         -1.6200    1.3170   -5.5070 H         1 LIG      0.045700
     35 H9         -1.7800   -1.6750   -5.1520 H         1 LIG      0.044700
     36 H10        -3.0800   -0.5490   -4.8460 H         1 LIG      0.044700
     37 H11        -1.9020   -2.3970   -3.0100 H         1 LIG      0.046700
     38 H12        -3.2010   -1.2710   -2.7030 H         1 LIG      0.046700
     39 H13        -0.5790   -1.3620   -1.2130 H         1 LIG      0.055200
     40 H14        -2.1100   -1.9410   -0.6020 H         1 LIG      0.055200
     41 H15        -2.1370    2.1880    0.7390 H         1 LIG      0.141500
     42 H16        -1.3080    2.3730    2.9970 H         1 LIG      0.134000
     43 H17        -0.7360   -1.7560    0.5570 H         1 LIG      0.141500
     44 H18         0.1080   -1.5560    2.8090 H         1 LIG      0.134000
     45 H19         0.5380    2.5920    4.2600 H         1 LIG      0.037033
     46 H20         1.8150    1.4590    3.8880 H         1 LIG      0.037033
     47 H21         1.3680    1.7570    5.5510 H         1 LIG      0.037033
     48 H22        -1.6510    1.7650    5.1330 H         1 LIG      0.037033
     49 H23        -0.8210    0.9290    6.4230 H         1 LIG      0.037033
     50 H24        -1.9060    0.0530    5.3710 H         1 LIG      0.037033
     51 H25         1.3040   -1.0960    4.1170 H         1 LIG      0.041200
     52 H26        -0.1170   -1.5200    5.0420 H         1 LIG      0.041200
     53 H27        -0.3340   -0.2630    7.3750 H         1 LIG      0.034256
     54 H28         0.3520    1.2080    6.7270 H         1 LIG      0.034256
     55 H29         1.1240    0.4020    8.0720 H         1 LIG      0.034256
     56 H30         0.8290   -2.4440    7.0250 H         1 LIG      0.034256
     57 H31         2.2870   -1.7790    7.7210 H         1 LIG      0.034256
     58 H32         2.3290   -2.5020    6.1310 H         1 LIG      0.034256
     59 H33         2.4980    1.1250    5.4460 H         1 LIG      0.034256
     60 H34         3.3110   -0.4020    5.2020 H         1 LIG      0.034256
     61 H35         3.2690    0.3210    6.7920 H         1 LIG      0.034256
@<TRIPOS>BOND
     1    1    2 1   
     2    2    3 1   
     3    3    4 1   
     4    4    5 1   
     5    5    6 1   
     6    6    7 1   
     7    7    8 1   
     8    8    9 1   
     9    9   10 1   
    10   10   11 1   
    11   11   12 1   
    12   12   13 ar  
    13   12   15 ar  
    14   13   14 ar  
    15   14   17 ar  
    16   15   16 ar  
    17   16   17 ar  
    18   17   18 1   
    19   18   19 1   
    20   18   20 1   
    21   18   21 1   
    22   21   22 1   
    23   22   23 1   
    24   22   24 1   
    25   22   25 1   
    26    1   26 1   
    27    1   27 1   
    28    1   28 1   
    29    3   29 1   
    30    3   30 1   
    31    4   31 1   
    32    4   32 1   
    33    6   33 1   
    34    6   34 1   
    35    7   35 1   
    36    7   36 1   
    37    9   37 1   
    38    9   38 1   
    39   10   39 1   
    40   10   40 1   
    41   13   41 1   
    42   14   42 1   
    43   15   43 1   
    44   16   44 1   
    45   19   45 1   
    46   19   46 1   
    47   19   47 1   
    48   20   48 1   
    49   20   49 1   
    50   20   50 1   
    51   21   51 1   
    52   21   52 1   
    53   23   53 1   
    54   23   54 1   
    55   23   55 1   
    56   24   56 1   
    57   24   57 1   
    58   24   58 1   
    59   25   59 1   
    60   25   60 1   
    61   25   61 1   
@<TRIPOS>SUBSTRUCTURE
     1 LIG         1 TEMP              0 ****  ****    0 ROOT
