@<TRIPOS>MOLECULE
XUL
   20    19     1     0     0
SMALL
bcc


@<TRIPOS>ATOM
      1 C           0.8690    0.6390   -2.2200 C.3       1 LIG      0.038400
      2 C1         -0.2150    0.0960   -1.3260 C.        1 LIG      0.505100
      3 C2         -0.4460    0.7040    0.0320 C.3       1 LIG      0.017100
      4 C3          0.4150   -0.0190    1.0680 C.3       1 LIG      0.075100
      5 C4          0.1810    0.5970    2.4480 C.3       1 LIG      0.102400
      6 O           0.8900   -0.0960   -3.4440 O.h       1 LIG     -0.580800
      7 O1         -0.8990   -0.8260   -1.6990 O.3       1 LIG     -0.513100
      8 O2         -1.8250    0.5720    0.3850 O.h       1 LIG     -0.587800
      9 O3          0.0620   -1.4030    1.0990 O.h       1 LIG     -0.594800
     10 O4          0.9860   -0.0780    3.4160 O.h       1 LIG     -0.590800
     11 H           1.8160    0.5440   -1.7310 H         1 LIG      0.073700
     12 H1          0.6760    1.6710   -2.4270 H         1 LIG      0.073700
     13 H2         -0.1810    1.7400    0.0080 H         1 LIG      0.099700
     14 H3          1.4470    0.0810    0.8040 H         1 LIG      0.090700
     15 H4         -0.8510    0.4980    2.7120 H         1 LIG      0.053700
     16 H5          0.4470    1.6330    2.4250 H         1 LIG      0.053700
     17 H6          1.0650   -1.0320   -3.2560 H         1 LIG      0.422000
     18 H7         -2.0650   -0.3680    0.4070 H         1 LIG      0.432000
     19 H8         -0.8740   -1.4930    1.3380 H         1 LIG      0.419000
     20 H9          0.7460   -1.0180    3.4380 H         1 LIG      0.415000
@<TRIPOS>BOND
     1    1    2 1   
     2    1    6 1   
     3    2    3 1   
     4    2    7 2   
     5    3    4 1   
     6    3    8 1   
     7    4    5 1   
     8    4    9 1   
     9    5   10 1   
    10    1   11 1   
    11    1   12 1   
    12    3   13 1   
    13    4   14 1   
    14    5   15 1   
    15    5   16 1   
    16    6   17 1   
    17    8   18 1   
    18    9   19 1   
    19   10   20 1   
@<TRIPOS>SUBSTRUCTURE
     1 LIG         1 TEMP              0 ****  ****    0 ROOT
