@<TRIPOS>MOLECULE
LOC
   54    56     1     0     0
SMALL
bcc


@<TRIPOS>ATOM
      1 O          -1.2250    2.4910   -2.2540 o         1 LIG     -0.603100
      2 C          -1.8310    3.1570   -1.4420 c         1 LIG      0.662100
      3 C1         -2.8390    4.1770   -1.9050 c3        1 LIG     -0.176100
      4 N          -1.6080    2.9800   -0.1240 n         1 LIG     -0.572900
      5 C2         -0.6320    1.9850    0.3260 c3        1 LIG      0.124900
      6 C3         -1.3070    0.6310    0.4020 cc        1 LIG     -0.003200
      7 C4         -2.6490    0.6370    0.4780 cd        1 LIG     -0.256200
      8 C5         -0.0760    2.4110    1.6700 c3        1 LIG     -0.078400
      9 C6          0.6610    1.2610    2.3500 c3        1 LIG     -0.040100
     10 C7          1.5390    0.5570    1.3470 ca        1 LIG     -0.031300
     11 C8          2.9020    0.7670    1.3520 ca        1 LIG     -0.202000
     12 C9          3.7110    0.1090    0.4330 ca        1 LIG      0.121100
     13 C10         3.1530   -0.7640   -0.4950 ca        1 LIG      0.043100
     14 C11         1.7800   -0.9770   -0.5080 ca        1 LIG      0.133100
     15 O1          1.2270   -1.8290   -1.4110 os        1 LIG     -0.347900
     16 C12         0.9270   -1.2980   -2.7030 c3        1 LIG      0.113700
     17 O2          3.9510   -1.4080   -1.3890 os        1 LIG     -0.327900
     18 C13         4.4780   -2.6760   -0.9930 c3        1 LIG      0.117700
     19 O3          5.0530    0.3200    0.4410 os        1 LIG     -0.318900
     20 C14         5.5620    1.2290    1.4190 c3        1 LIG      0.111700
     21 C15         0.9730   -0.3070    0.4160 ca        1 LIG     -0.080800
     22 C16        -0.5060   -0.5120    0.3900 cc        1 LIG     -0.041200
     23 C17        -0.9480   -1.8100    0.3610 cd        1 LIG     -0.051000
     24 C18        -2.1790   -2.3560    0.3780 cd        1 LIG     -0.210000
     25 C19        -3.3860   -1.7350    0.4590 cc        1 LIG      0.044900
     26 C20        -3.5820   -0.3600    0.5350 c         1 LIG      0.585500
     27 O4         -4.7420    0.0040    0.6700 o         1 LIG     -0.509100
     28 O5         -4.4900   -2.5210    0.4670 os        1 LIG     -0.305900
     29 C21        -4.2820   -3.9320    0.3890 c3        1 LIG      0.106700
     30 H          -2.8810    4.1770   -2.9740 hc        1 LIG      0.067033
     31 H1         -2.5490    5.1470   -1.5590 hc        1 LIG      0.067033
     32 H2         -3.8030    3.9310   -1.5100 hc        1 LIG      0.067033
     33 H3         -2.1010    3.5190    0.5360 hn        1 LIG      0.304500
     34 H4          0.1830    1.9120   -0.3630 h1        1 LIG      0.112700
     35 H5         -3.0570    1.5850    0.4970 ha        1 LIG      0.143000
     36 H6         -0.8830    2.7280    2.2970 hc        1 LIG      0.051700
     37 H7          0.6160    3.2120    1.5130 hc        1 LIG      0.051700
     38 H8         -0.0510    0.5680    2.7480 hc        1 LIG      0.059200
     39 H9          1.2670    1.6480    3.1420 hc        1 LIG      0.059200
     40 H10         3.3220    1.4130    2.0390 ha        1 LIG      0.142000
     41 H11         0.4990   -2.0660   -3.3140 h1        1 LIG      0.051367
     42 H12         1.8260   -0.9390   -3.1590 h1        1 LIG      0.051367
     43 H13         0.2310   -0.4910   -2.6040 h1        1 LIG      0.051367
     44 H14         5.0840   -3.0720   -1.7810 h1        1 LIG      0.044033
     45 H15         3.6720   -3.3500   -0.7900 h1        1 LIG      0.044033
     46 H16         5.0730   -2.5560   -0.1120 h1        1 LIG      0.044033
     47 H17         6.6250    1.3040    1.3170 h1        1 LIG      0.046367
     48 H18         5.3220    0.8710    2.3980 h1        1 LIG      0.046367
     49 H19         5.1210    2.1930    1.2740 h1        1 LIG      0.046367
     50 H20        -0.1870   -2.5060    0.3180 ha        1 LIG      0.154000
     51 H21        -2.2110   -3.3860    0.3220 ha        1 LIG      0.142000
     52 H22        -5.2270   -4.4330    0.4040 h1        1 LIG      0.048367
     53 H23        -3.6950   -4.2530    1.2240 h1        1 LIG      0.048367
     54 H24        -3.7680   -4.1670   -0.5200 h1        1 LIG      0.048367
@<TRIPOS>BOND
     1    1    2 2   
     2    2    3 1   
     3    2    4 1   
     4    4    5 1   
     5    5    6 1   
     6    5    8 1   
     7    6    7 2   
     8    6   22 1   
     9    7   26 1   
    10    8    9 1   
    11    9   10 1   
    12   10   11 ar  
    13   10   21 ar  
    14   11   12 ar  
    15   12   13 ar  
    16   12   19 1   
    17   13   14 ar  
    18   13   17 1   
    19   14   15 1   
    20   14   21 ar  
    21   15   16 1   
    22   17   18 1   
    23   19   20 1   
    24   21   22 1   
    25   22   23 2   
    26   23   24 1   
    27   24   25 2   
    28   25   26 1   
    29   25   28 1   
    30   26   27 2   
    31   28   29 1   
    32    3   30 1   
    33    3   31 1   
    34    3   32 1   
    35    4   33 1   
    36    5   34 1   
    37    7   35 1   
    38    8   36 1   
    39    8   37 1   
    40    9   38 1   
    41    9   39 1   
    42   11   40 1   
    43   16   41 1   
    44   16   42 1   
    45   16   43 1   
    46   18   44 1   
    47   18   45 1   
    48   18   46 1   
    49   20   47 1   
    50   20   48 1   
    51   20   49 1   
    52   23   50 1   
    53   24   51 1   
    54   29   52 1   
    55   29   53 1   
    56   29   54 1   
@<TRIPOS>SUBSTRUCTURE
     1 LIG         1 TEMP              0 ****  ****    0 ROOT
