@<TRIPOS>MOLECULE
MP8
   20    20     1     0     0
SMALL
bcc


@<TRIPOS>ATOM
      1 C          -1.7750    0.0770    0.0180 c         1 LEU      0.934600
      2 N           0.2020   -1.3580    0.2870 n4        1 LEU     -0.763000
      3 O          -2.2040   -0.7660   -0.7340 o         1 LEU     -0.760800
      4 CA         -0.3450    0.0080    0.4890 c3        1 LEU     -0.057500
      5 CB          0.5510    0.9180   -0.3780 c3        1 LEU     -0.078400
      6 CD1         1.6740   -1.1620    0.2640 c3        1 LEU      0.114800
      7 CD2         3.0320    0.9560    0.0760 c3        1 LEU     -0.095100
      8 CG          1.8800    0.1480   -0.5260 c3        1 LEU     -0.076700
      9 OXT        -2.5700    1.0770    0.4290 o         1 LEU     -0.760800
     10 H1         -0.1240   -1.7510   -0.5960 hn        1 LEU      0.453300
     11 H2         -0.0940   -2.0090    1.0150 hn        1 LEU      0.453300
     12 HA         -0.3450    0.2980    1.5190 hx        1 LEU      0.088700
     13 HB1         0.7130    1.8580    0.1070 hc        1 LEU      0.082700
     14 HB2         0.1050    1.1350   -1.3260 hc        1 LEU      0.082700
     15 HD11        2.1560   -1.9800   -0.2290 hx        1 LEU      0.081200
     16 HD12        2.0920   -1.1130    1.2480 hx        1 LEU      0.081200
     17 HD21        3.1630    1.8600   -0.4810 hc        1 LEU      0.046033
     18 HD22        3.9320    0.3790    0.0350 hc        1 LEU      0.046033
     19 HD23        2.8070    1.1940    1.0950 hc        1 LEU      0.046033
     20 HG          2.1280   -0.0350   -1.5510 hc        1 LEU      0.081700
@<TRIPOS>BOND
     1    1    3 1   
     2    1    4 1   
     3    1    9 1   
     4    2    4 1   
     5    2    6 1   
     6    4    5 1   
     7    5    8 1   
     8    6    8 1   
     9    7    8 1   
    10    2   10 1   
    11    2   11 1   
    12    4   12 1   
    13    5   13 1   
    14    5   14 1   
    15    6   15 1   
    16    6   16 1   
    17    7   17 1   
    18    7   18 1   
    19    7   19 1   
    20    8   20 1   
@<TRIPOS>SUBSTRUCTURE
     1 LEU         1 TEMP              0 ****  ****    0 ROOT
