@<TRIPOS>MOLECULE
0X5
   36    38     1     0     0
SMALL
bcc


@<TRIPOS>ATOM
      1 C           3.0400   -0.1830   -0.2090 C.a       1 LIG     -0.144600
      2 C1          3.9280    0.7750   -0.7060 C.a       1 LIG      0.051400
      3 C2          5.2800    0.4970   -0.7590 C.a       1 LIG     -0.128000
      4 C3         -0.3160    0.8380    1.0600 C.a       1 LIG      0.132600
      5 C4          1.5940    0.1060   -0.1490 C.        1 LIG      0.692700
      6 C5         -0.8560    1.8410    1.8650 C.a       1 LIG     -0.338300
      7 C6         -2.2260    1.9750    1.9460 C.a       1 LIG      0.448200
      8 C7          3.5280   -1.4190    0.2230 C.a       1 LIG      0.051400
      9 C8          5.7550   -0.7270   -0.3240 C.a       1 LIG     -0.095000
     10 C9          4.8820   -1.6830    0.1630 C.a       1 LIG     -0.128000
     11 Cl          3.3340    2.3120   -1.2530 C.l       1 LIG     -0.060400
     12 O           0.8790   -0.1660   -1.0940 O.3       1 LIG     -0.554100
     13 N           1.0650    0.6730    0.9540 N.        1 LIG     -0.462100
     14 N1         -3.0270    1.1680    1.2750 N.b       1 LIG     -0.686000
     15 C10        -2.5560    0.2030    0.4990 C.a       1 LIG      0.564200
     16 C11        -1.1890    0.0020    0.3700 C.a       1 LIG     -0.329300
     17 N2         -3.4430   -0.6270   -0.1860 N.        1 LIG     -0.562400
     18 C12        -4.7660   -0.3760   -0.1470 C.        1 LIG      0.698100
     19 O1         -5.1940    0.5150    0.5560 O.3       1 LIG     -0.536100
     20 C13        -5.7140   -1.2020   -0.9780 C.x       1 LIG     -0.229700
     21 C14        -7.2050   -0.8670   -0.8920 C.x       1 LIG     -0.107900
     22 C15        -6.4110   -0.5110   -2.1510 C.x       1 LIG     -0.107900
     23 Cl1         2.4340   -2.6200    0.8360 C.l       1 LIG     -0.060400
     24 H           5.9370    1.2040   -1.1240 H         1 LIG      0.158000
     25 H1         -0.2370    2.4750    2.3940 H         1 LIG      0.142000
     26 H2         -2.6310    2.7160    2.5390 H         1 LIG      0.026100
     27 H3          6.7660   -0.9280   -0.3630 H         1 LIG      0.149000
     28 H4          5.2430   -2.5950    0.4820 H         1 LIG      0.158000
     29 H5          1.6540    0.9710    1.6850 H         1 LIG      0.327500
     30 H6         -0.8250   -0.7560   -0.2290 H         1 LIG      0.177000
     31 H7         -3.1030   -1.3960   -0.6980 H         1 LIG      0.325500
     32 H8         -5.1300   -2.0910   -0.8620 H         1 LIG      0.097700
     33 H9         -7.9320   -1.6510   -0.9220 H         1 LIG      0.082700
     34 H10        -7.8200   -0.3230   -0.2060 H         1 LIG      0.082700
     35 H11        -6.1940    0.5120   -2.3750 H         1 LIG      0.082700
     36 H12        -6.5170   -0.7170   -3.1960 H         1 LIG      0.082700
@<TRIPOS>BOND
     1    1    5 1   
     2    2    1 ar  
     3    2   11 1   
     4    3    2 ar  
     5    4    6 ar  
     6    5   12 2   
     7    7    6 ar  
     8    8   23 1   
     9    8    1 ar  
    10    9   10 ar  
    11    9    3 ar  
    12   10    8 ar  
    13   13    4 1   
    14   13    5 1   
    15   14    7 ar  
    16   15   16 ar  
    17   15   14 ar  
    18   16    4 ar  
    19   17   15 1   
    20   18   19 2   
    21   18   17 1   
    22   20   18 1   
    23   21   22 1   
    24   21   20 1   
    25   22   20 1   
    26    3   24 1   
    27    6   25 1   
    28    7   26 1   
    29    9   27 1   
    30   10   28 1   
    31   13   29 1   
    32   16   30 1   
    33   17   31 1   
    34   20   32 1   
    35   21   33 1   
    36   21   34 1   
    37   22   35 1   
    38   22   36 1   
@<TRIPOS>SUBSTRUCTURE
     1 LIG         1 TEMP              0 ****  ****    0 ROOT
