@<TRIPOS>MOLECULE
HNM
   29    29     1     0     0
SMALL
bcc


@<TRIPOS>ATOM
      1 N           2.8410   -1.3750    0.0230 nb        1 LIG     -0.745000
      2 C           1.5790   -1.0000    0.0150 ca        1 LIG      0.482200
      3 C1          1.2430    0.3570    0.0030 ca        1 LIG     -0.355900
      4 C2          2.2740    1.3130   -0.0010 ca        1 LIG      0.001000
      5 C3          3.5700    0.8750    0.0070 ca        1 LIG     -0.269300
      6 C4          3.8290   -0.4930    0.0190 ca        1 LIG      0.675600
      7 O           5.1120   -0.9290    0.0270 oh        1 LIG     -0.590300
      8 C5         -0.1640    0.7770   -0.0060 c         1 LIG      0.599700
      9 O1         -0.4450    1.9570   -0.0160 o         1 LIG     -0.539100
     10 C6         -1.2590   -0.2580   -0.0020 c3        1 LIG     -0.183400
     11 C7         -2.6210    0.4400   -0.0130 c3        1 LIG     -0.108400
     12 C8         -3.7330   -0.6110   -0.0090 c3        1 LIG      0.101800
     13 N1         -5.0400    0.0600   -0.0200 n4        1 LIG     -0.758000
     14 C9         -6.1340   -0.9210   -0.0160 c3        1 LIG      0.077100
     15 H           0.8330   -1.7130    0.0180 h4        1 LIG      0.016100
     16 H1          2.0580    2.3220   -0.0100 ha        1 LIG      0.170000
     17 H2          4.3490    1.5520    0.0040 ha        1 LIG      0.180000
     18 H3          5.2950   -1.8480    0.0350 ho        1 LIG      0.456000
     19 H4         -1.1750   -0.8630    0.8770 hc        1 LIG      0.079700
     20 H5         -1.1680   -0.8760   -0.8700 hc        1 LIG      0.079700
     21 H6         -2.7050    1.0440   -0.8920 hc        1 LIG      0.084700
     22 H7         -2.7120    1.0580    0.8550 hc        1 LIG      0.084700
     23 H8         -3.6500   -1.2150    0.8700 hx        1 LIG      0.106700
     24 H9         -3.6420   -1.2300   -0.8770 hx        1 LIG      0.106700
     25 H10        -5.1120    0.6370   -0.8580 hn        1 LIG      0.456800
     26 H11        -5.1170    0.6370    0.8180 hn        1 LIG      0.456800
     27 H12        -6.0660   -1.5340   -0.8900 hx        1 LIG      0.112033
     28 H13        -7.0730   -0.4080   -0.0120 hx        1 LIG      0.112033
     29 H14        -6.0590   -1.5350    0.8570 hx        1 LIG      0.112033
@<TRIPOS>BOND
     1    1    2 ar  
     2    1    6 ar  
     3    2    3 ar  
     4    3    4 ar  
     5    3    8 1   
     6    4    5 ar  
     7    5    6 ar  
     8    6    7 1   
     9    8    9 2   
    10    8   10 1   
    11   10   11 1   
    12   11   12 1   
    13   12   13 1   
    14   13   14 1   
    15    2   15 1   
    16    4   16 1   
    17    5   17 1   
    18    7   18 1   
    19   10   19 1   
    20   10   20 1   
    21   11   21 1   
    22   11   22 1   
    23   12   23 1   
    24   12   24 1   
    25   13   25 1   
    26   13   26 1   
    27   14   27 1   
    28   14   28 1   
    29   14   29 1   
@<TRIPOS>SUBSTRUCTURE
     1 LIG         1 TEMP              0 ****  ****    0 ROOT
