@<TRIPOS>MOLECULE
FGP
   18    17     1     0     0
SMALL
bcc


@<TRIPOS>ATOM
      1 N           1.4060    1.8410    0.5760 N.4       1 LIG     -1.120600
      2 CA          1.6520    0.3950    0.6470 C.3       1 LIG      0.002500
      3 C           0.4750   -0.3540    0.0180 C.3       1 LIG      0.371900
      4 O           0.6590   -1.7600    0.1900 O.h       1 LIG     -0.634800
      5 O1         -0.7400    0.0490    0.6530 O.2       1 LIG     -0.622200
      6 C1          2.9170    0.0630   -0.1030 C.        1 LIG      0.918600
      7 O2          3.3510    0.8340   -0.9260 O.3       1 LIG     -0.860300
      8 P          -2.1610    0.0680   -0.1040 P.5       1 LIG      1.351900
      9 O3         -2.0550    0.8900   -1.3300 O.3       1 LIG     -0.732500
     10 O4         -2.5780   -1.4360   -0.5000 O.3       1 LIG     -0.732500
     11 O5         -3.2790    0.6970    0.8690 O.3       1 LIG     -0.732500
     12 OXT         3.5610   -1.0890    0.1440 O.3       1 LIG     -0.860300
     13 H1          0.5500    2.0660    1.0830 H         1 LIG      0.369467
     14 H2          1.3060    2.1210   -0.4000 H         1 LIG      0.369467
     15 H3          2.1910    2.3400    0.9950 H         1 LIG      0.369467
     16 HA          1.7560    0.1010    1.6710 H         1 LIG      0.053700
     17 H           0.4240   -0.1260   -1.0260 H         1 LIG      0.063700
     18 H4          0.7050   -1.9670    1.1370 H         1 LIG      0.425000
@<TRIPOS>BOND
     1    1    2 1   
     2    2    3 1   
     3    2    6 1   
     4    3    4 1   
     5    3    5 1   
     6    5    8 1   
     7    6    7 1   
     8    6   12 1   
     9    8    9 1   
    10    8   10 1   
    11    8   11 1   
    12    1   13 1   
    13    1   14 1   
    14    1   15 1   
    15    2   16 1   
    16    3   17 1   
    17    4   18 1   
@<TRIPOS>SUBSTRUCTURE
     1 LIG         1 TEMP              0 ****  ****    0 ROOT
