@<TRIPOS>MOLECULE
DHA
   10     9     1     0     0
SMALL
bcc


@<TRIPOS>ATOM
      1 N           1.4450    1.1710    0.0000 N.h       1 ALA     -0.808600
      2 CA          0.7700   -0.0540    0.0000 C.e       1 ALA      0.001800
      3 CB          1.4600   -1.1980   -0.0000 C.2       1 ALA     -0.339000
      4 C          -0.7050   -0.0840    0.0000 C.        1 ALA      0.906800
      5 O          -1.2910   -1.1480   -0.0000 O.3       1 ALA     -0.833800
      6 OXT        -1.4010    1.0700    0.0000 O.3       1 ALA     -0.833800
      7 H1          2.4290    1.1910    0.0000 H         1 ALA      0.357800
      8 H2          0.9360    2.0140    0.0000 H         1 ALA      0.357800
      9 HB1         2.4920   -1.1780   -0.0000 H         1 ALA      0.095500
     10 HB2         0.9610   -2.1010    0.0000 H         1 ALA      0.095500
@<TRIPOS>BOND
     1    1    2 1   
     2    2    3 2   
     3    2    4 1   
     4    4    5 1   
     5    4    6 1   
     6    1    7 1   
     7    1    8 1   
     8    3    9 1   
     9    3   10 1   
@<TRIPOS>SUBSTRUCTURE
     1 ALA         1 TEMP              0 ****  ****    0 ROOT
