@<TRIPOS>MOLECULE
MGD
   71    76     1     0     0
SMALL
bcc


@<TRIPOS>ATOM
      1 P          -0.0980    1.3110   -1.0690 P.5       1 LIG      1.620800
      2 O           0.5130    2.5510   -0.5410 O.3       1 LIG     -0.861500
      3 O1         -1.6300    1.5980   -1.4710 O.3       1 LIG     -0.861500
      4 O2         -0.0440    0.1630    0.0580 O.2       1 LIG     -0.789800
      5 O3         -0.8610   -0.3870    2.4950 O.2       1 LIG     -0.606200
      6 P1         -0.8730    0.7150    1.3230 P.5       1 LIG      1.681800
      7 O4         -0.2490    1.9640    1.8150 O.3       1 LIG     -0.681500
      8 O5         -2.3920    1.0120    0.8810 O.3       1 LIG     -0.681500
      9 O6          0.7150    0.8230   -2.3700 O.2       1 LIG     -0.575200
     10 C           0.6310    1.8790   -3.3290 C.3       1 LIG      0.207400
     11 C1          1.3880    1.4780   -4.5970 C.3       1 LIG      0.060100
     12 O7          0.7870    0.3070   -5.1750 O.2       1 LIG     -0.416600
     13 C2          1.2980    2.6070   -5.6410 C.3       1 LIG      0.119100
     14 O8          2.5990    3.0900   -5.9800 O.h       1 LIG     -0.640800
     15 C3          0.6330    1.9320   -6.8690 C.3       1 LIG      0.112100
     16 O9          1.2490    2.3640   -8.0840 O.h       1 LIG     -0.597800
     17 C4          0.9180    0.4310   -6.6080 C.3       1 LIG      0.212800
     18 N          -0.0670   -0.4110   -7.2900 N.a       1 LIG     -0.193900
     19 C5         -1.2910   -0.7730   -6.8080 C.c       1 LIG      0.428400
     20 N1         -1.9030   -1.5230   -7.6760 N.d       1 LIG     -0.613000
     21 C6         -1.1110   -1.6880   -8.7640 C.d       1 LIG      0.186800
     22 C7         -1.2500   -2.3840   -9.9870 C.        1 LIG      0.648000
     23 O10        -2.2630   -3.0160  -10.2350 O.3       1 LIG     -0.628500
     24 N2         -0.2320   -2.3330  -10.8740 N.        1 LIG     -0.503400
     25 C8          0.8950   -1.6230  -10.5870 C.d       1 LIG      0.627800
     26 N3          1.9140   -1.5890  -11.5060 N.h       1 LIG     -0.872800
     27 N4          1.0360   -0.9720   -9.4540 N.c       1 LIG     -0.631100
     28 C9          0.0680   -0.9730   -8.5300 C.c       1 LIG      0.082800
     29 C10        -1.6080    0.1580    3.5840 C.3       1 LIG      0.186400
     30 C11        -1.6360   -0.8460    4.7380 C.3       1 LIG      0.161300
     31 O11        -0.2970   -1.1090    5.1580 O.2       1 LIG     -0.456600
     32 C12        -2.4710   -0.2820    5.8540 C.2       1 LIG      0.158400
     33 S          -3.9760    0.5460    5.4640 S.h       1 LIG     -1.001400
     34 C13        -2.1110   -0.3900    7.1390 C.2       1 LIG     -0.160600
     35 S1         -3.1420    0.2940    8.3930 S.h       1 LIG     -0.468400
     36 C14        -0.8230   -1.0910    7.4930 C.3       1 LIG      0.265700
     37 N5          0.2210   -0.0810    7.7290 N.h       1 LIG     -0.678000
     38 C15         1.5750   -0.4740    7.6870 C.c       1 LIG     -0.027200
     39 C16         2.5790    0.3430    8.2140 C.        1 LIG      0.695700
     40 O12         2.3040    1.4170    8.7280 O.3       1 LIG     -0.657500
     41 N6          3.8590   -0.0820    8.1470 N.        1 LIG     -0.476400
     42 C17         4.1530   -1.2770    7.5670 C.c       1 LIG      0.575800
     43 N7          5.4610   -1.6860    7.5030 N.h       1 LIG     -0.861800
     44 N8          3.2130   -2.0530    7.0700 N.d       1 LIG     -0.647300
     45 C18         1.9270   -1.6880    7.1130 C.d       1 LIG      0.257600
     46 N9          0.9400   -2.5110    6.5950 N.h       1 LIG     -0.665000
     47 C19        -0.3840   -1.9540    6.3040 C.3       1 LIG      0.359300
     48 H           1.0650    2.7670   -2.9200 H         1 LIG      0.021200
     49 H1         -0.3960    2.0620   -3.5690 H         1 LIG      0.021200
     50 H2          2.4080    1.2890   -4.3330 H         1 LIG      0.105700
     51 H3          0.7480    3.4520   -5.2830 H         1 LIG      0.093700
     52 H4          3.1400    2.3560   -6.3120 H         1 LIG      0.491000
     53 H5         -0.4060    2.1620   -6.9780 H         1 LIG      0.080700
     54 H6          2.2010    2.1810   -8.0470 H         1 LIG      0.433000
     55 H7          1.8760    0.1200   -6.9700 H         1 LIG      0.103700
     56 H8         -1.6740   -0.4930   -5.8910 H         1 LIG      0.090100
     57 H9         -0.3050   -2.8110  -11.7320 H         1 LIG      0.326500
     58 H10         1.8240   -2.0710  -12.3590 H         1 LIG      0.395800
     59 H11         2.7350   -1.0820  -11.3120 H         1 LIG      0.395800
     60 H12        -2.6090    0.3610    3.2640 H         1 LIG      0.065700
     61 H13        -1.1470    1.0660    3.9130 H         1 LIG      0.065700
     62 H14        -2.0740   -1.7720    4.4300 H         1 LIG      0.070700
     63 H15        -4.1570    0.5470    4.1160 H         1 LIG      0.487800
     64 H16        -4.2340    0.8670    7.8190 H         1 LIG      0.307800
     65 H17        -0.9690   -1.6940    8.3650 H         1 LIG      0.066700
     66 H18        -0.0220    0.8550    7.9130 H         1 LIG      0.425800
     67 H19         4.5810    0.4740    8.5190 H         1 LIG      0.327500
     68 H20         6.1740   -1.1150    7.8710 H         1 LIG      0.380300
     69 H21         5.6870   -2.5500    7.0890 H         1 LIG      0.380300
     70 H22         1.1270   -3.4620    6.4240 H         1 LIG      0.399800
     71 H23        -1.0790   -2.7480    6.1290 H         1 LIG      0.067700
@<TRIPOS>BOND
     1    1    2 1   
     2    1    3 1   
     3    1    4 1   
     4    1    9 1   
     5    4    6 1   
     6    5    6 1   
     7    5   29 1   
     8    6    7 1   
     9    6    8 1   
    10    9   10 1   
    11   10   11 1   
    12   11   12 1   
    13   11   13 1   
    14   12   17 1   
    15   13   14 1   
    16   13   15 1   
    17   15   16 1   
    18   15   17 1   
    19   17   18 1   
    20   18   19 ar  
    21   18   28 ar  
    22   19   20 ar  
    23   20   21 ar  
    24   21   22 1   
    25   21   28 ar  
    26   22   23 2   
    27   22   24 1   
    28   24   25 1   
    29   25   26 1   
    30   25   27 2   
    31   27   28 1   
    32   29   30 1   
    33   30   31 1   
    34   30   32 1   
    35   31   47 1   
    36   32   33 1   
    37   32   34 2   
    38   34   35 1   
    39   34   36 1   
    40   36   37 1   
    41   36   47 1   
    42   37   38 1   
    43   38   39 1   
    44   38   45 2   
    45   39   40 2   
    46   39   41 1   
    47   41   42 1   
    48   42   43 1   
    49   42   44 2   
    50   44   45 1   
    51   45   46 1   
    52   46   47 1   
    53   10   48 1   
    54   10   49 1   
    55   11   50 1   
    56   13   51 1   
    57   14   52 1   
    58   15   53 1   
    59   16   54 1   
    60   17   55 1   
    61   19   56 1   
    62   24   57 1   
    63   26   58 1   
    64   26   59 1   
    65   29   60 1   
    66   29   61 1   
    67   30   62 1   
    68   33   63 1   
    69   35   64 1   
    70   36   65 1   
    71   37   66 1   
    72   41   67 1   
    73   43   68 1   
    74   43   69 1   
    75   46   70 1   
    76   47   71 1   
@<TRIPOS>SUBSTRUCTURE
     1 LIG         1 TEMP              0 ****  ****    0 ROOT
