@<TRIPOS>MOLECULE
2RA
   16    15     1     0     0
SMALL
bcc


@<TRIPOS>ATOM
      1 C          -1.1600    0.0490   -0.0220 C.        1 LIG      1.029600
      2 N           0.6540   -1.5220   -0.4030 N.4       1 LIG     -0.678600
      3 O          -1.6870   -0.8170    0.6350 O.3       1 LIG     -0.489300
      4 CA          0.2730   -0.1040   -0.4610 C.3       1 LIG     -0.572500
      5 C1          1.1810    0.7060    0.4670 C.3       1 LIG      0.273800
      6 N1          2.5850    0.4620    0.1130 N.4       1 LIG     -0.903600
      7 OXT        -1.8540    1.1460   -0.3650 O.3       1 LIG     -0.489300
      8 H1          0.0490   -2.0620   -1.0220 H         1 LIG      0.421800
      9 H2          0.5530   -1.8620    0.5530 H         1 LIG      0.421800
     10 H3          1.6240   -1.6260   -0.7010 H         1 LIG      0.421800
     11 HA          0.3790    0.2540   -1.4640 H         1 LIG      0.141700
     12 H           1.0120    0.4080    1.4810 H         1 LIG      0.078200
     13 H4          0.9620    1.7480    0.3600 H         1 LIG      0.078200
     14 H5          2.7940   -0.5310    0.2150 H         1 LIG      0.422800
     15 H6          3.1900    1.0020    0.7320 H         1 LIG      0.422800
     16 H7          2.7460    0.7460   -0.8530 H         1 LIG      0.422800
@<TRIPOS>BOND
     1    1    3 1   
     2    1    4 1   
     3    1    7 1   
     4    2    4 1   
     5    4    5 1   
     6    5    6 1   
     7    2    8 1   
     8    2    9 1   
     9    2   10 1   
    10    4   11 1   
    11    5   12 1   
    12    5   13 1   
    13    6   14 1   
    14    6   15 1   
    15    6   16 1   
@<TRIPOS>SUBSTRUCTURE
     1 LIG         1 TEMP              0 ****  ****    0 ROOT
