@<TRIPOS>MOLECULE
UFG
   57    59     1     0     0
SMALL
bcc


@<TRIPOS>ATOM
      1 N           0.9150   -0.6590    5.7520 n         1 LIG     -0.354000
      2 C           1.5860    0.4300    5.3360 c         1 LIG      0.804500
      3 N1          2.8610    0.6430    5.7130 n         1 LIG     -0.597500
      4 C1          3.4910   -0.2430    6.5090 c         1 LIG      0.719700
      5 C2          2.7990   -1.3960    6.9500 cc        1 LIG     -0.367200
      6 C3          1.5190   -1.5830    6.5610 cd        1 LIG      0.080600
      7 O           1.0300    1.2380    4.6180 o         1 LIG     -0.678500
      8 O1          4.6460   -0.0530    6.8460 o         1 LIG     -0.680500
      9 C4         -0.4720   -0.8610    5.3300 c3        1 LIG      0.286500
     10 C5         -1.3460    0.3590    5.7140 c3        1 LIG      0.105100
     11 O2         -1.8370    0.2340    7.0500 oh        1 LIG     -0.632800
     12 C6         -2.5060    0.2630    4.6880 c3        1 LIG      0.100100
     13 C7         -1.9270   -0.5960    3.5480 c3        1 LIG      0.114100
     14 O3         -0.5650   -0.9030    3.8900 os        1 LIG     -0.447600
     15 O4         -3.6430   -0.3720    5.2760 oh        1 LIG     -0.625800
     16 C8         -1.9700    0.1850    2.2340 c3        1 LIG      0.185400
     17 O5         -1.4250   -0.6170    1.1840 os        1 LIG     -0.591200
     18 P          -1.5010    0.2620   -0.1610 p5        1 LIG      1.613800
     19 O6         -2.9120    0.6090   -0.4440 o         1 LIG     -0.869500
     20 O7         -0.6440    1.6110    0.0290 o         1 LIG     -0.869500
     21 O8         -0.9000   -0.5850   -1.3910 os        1 LIG     -0.809800
     22 P1         -1.0070    0.3490   -2.6970 p5        1 LIG      1.632800
     23 O9         -2.4250    0.6950   -2.9410 o         1 LIG     -0.887000
     24 O10        -0.1590    1.6970   -2.4630 o         1 LIG     -0.887000
     25 O11        -0.4200   -0.4390   -3.9720 os        1 LIG     -0.592200
     26 C9         -0.5430    0.4370   -5.0930 c3        1 LIG      0.367900
     27 C10        -0.7420   -0.3890   -6.3650 c3        1 LIG      0.076100
     28 C11         0.4540   -1.3310   -6.5410 c3        1 LIG      0.090100
     29 C12         1.7410   -0.4990   -6.4980 c3        1 LIG      0.151600
     30 C13         1.7530    0.3350   -5.2150 c3        1 LIG      0.081100
     31 C14         3.0510    1.1420   -5.1450 c3        1 LIG      0.143400
     32 O12        -1.9430   -1.1560   -6.2540 oh        1 LIG     -0.643800
     33 O13         0.3560   -2.0020   -7.7980 oh        1 LIG     -0.619800
     34 O14         0.6390    1.2260   -5.2090 os        1 LIG     -0.446600
     35 O15         3.0640    1.9190   -3.9460 oh        1 LIG     -0.618800
     36 F           2.8500   -1.3510   -6.5120 f         1 LIG     -0.248300
     37 H           3.3350    1.4490    5.4060 hn        1 LIG      0.327500
     38 H1          3.2660   -2.0850    7.5610 ha        1 LIG      0.180000
     39 H2          0.9990   -2.4180    6.8720 h4        1 LIG      0.273000
     40 H3         -0.7950   -1.7680    5.7970 h2        1 LIG      0.109700
     41 H4         -0.8220    1.2910    5.6880 h1        1 LIG      0.107700
     42 H5         -2.3260   -0.5990    7.1380 ho        1 LIG      0.473000
     43 H6         -2.8400    1.2210    4.3490 h1        1 LIG      0.119700
     44 H7         -2.4970   -1.4930    3.4230 h1        1 LIG      0.065700
     45 H8         -3.3910   -1.2500    5.6010 ho        1 LIG      0.414000
     46 H9         -1.3950    1.0820    2.3330 h1        1 LIG      0.030700
     47 H10        -2.9840    0.4350    2.0010 h1        1 LIG      0.030700
     48 H11        -1.3860    1.0810   -4.9560 h2        1 LIG      0.103700
     49 H12        -0.8170    0.2620   -7.2110 h1        1 LIG      0.053700
     50 H13         0.4640   -2.0610   -5.7580 h1        1 LIG      0.083700
     51 H14         1.7820    0.1470   -7.3500 h1        1 LIG      0.047700
     52 H15         1.6890   -0.3170   -4.3690 h1        1 LIG      0.105700
     53 H16         3.1130    1.7920   -5.9920 h1        1 LIG      0.033700
     54 H17         3.8870    0.4740   -5.1470 h1        1 LIG      0.033700
     55 H18        -1.8790   -1.7480   -5.4880 ho        1 LIG      0.472000
     56 H19         0.3460   -1.3480   -8.5140 ho        1 LIG      0.416000
     57 H20         2.3060    2.5240   -3.9450 ho        1 LIG      0.433000
@<TRIPOS>BOND
     1    1    2 1   
     2    1    6 1   
     3    1    9 1   
     4    2    3 1   
     5    2    7 2   
     6    3    4 1   
     7    4    5 1   
     8    4    8 2   
     9    5    6 2   
    10    9   10 1   
    11    9   14 1   
    12   10   11 1   
    13   10   12 1   
    14   12   13 1   
    15   12   15 1   
    16   13   14 1   
    17   13   16 1   
    18   16   17 1   
    19   17   18 1   
    20   18   19 1   
    21   18   20 1   
    22   18   21 1   
    23   21   22 1   
    24   22   23 1   
    25   22   24 1   
    26   22   25 1   
    27   25   26 1   
    28   26   27 1   
    29   26   34 1   
    30   27   28 1   
    31   27   32 1   
    32   28   29 1   
    33   28   33 1   
    34   29   30 1   
    35   29   36 1   
    36   30   31 1   
    37   30   34 1   
    38   31   35 1   
    39    3   37 1   
    40    5   38 1   
    41    6   39 1   
    42    9   40 1   
    43   10   41 1   
    44   11   42 1   
    45   12   43 1   
    46   13   44 1   
    47   15   45 1   
    48   16   46 1   
    49   16   47 1   
    50   26   48 1   
    51   27   49 1   
    52   28   50 1   
    53   29   51 1   
    54   30   52 1   
    55   31   53 1   
    56   31   54 1   
    57   32   55 1   
    58   33   56 1   
    59   35   57 1   
@<TRIPOS>SUBSTRUCTURE
     1 LIG         1 TEMP              0 ****  ****    0 ROOT
