@<TRIPOS>MOLECULE
BHZ
   51    52     1     0     0
SMALL
bcc


@<TRIPOS>ATOM
      1 C           3.5360   -0.8440    0.7490 C.a       1 LIG     -0.260300
      2 C1          3.5880   -2.1790    1.0980 C.a       1 LIG     -0.080000
      3 C2          4.6810   -2.9470    0.7380 C.a       1 LIG     -0.174000
      4 C3          5.7230   -2.3810    0.0280 C.a       1 LIG     -0.067000
      5 C4          5.6760   -1.0450   -0.3230 C.a       1 LIG     -0.171000
      6 C5          4.5810   -0.2730    0.0370 C.a       1 LIG      0.195100
      7 O           4.5320    1.0410   -0.3080 O.h       1 LIG     -0.500100
      8 C6          2.3430   -0.0090    1.1360 C.3       1 LIG      0.166100
      9 N           1.3900    0.0320    0.0180 N.4       1 LIG     -0.652400
     10 C7          0.0650    0.4730    0.4720 C.3       1 LIG      0.071800
     11 C8         -0.9820    0.1140   -0.5850 C.3       1 LIG      0.084800
     12 N1         -2.2940    0.6250   -0.1680 N.4       1 LIG     -0.665400
     13 C9         -3.3620    0.1010   -1.0300 C.3       1 LIG      0.169100
     14 C10        -3.6580   -1.3270   -0.6510 C.a       1 LIG     -0.161300
     15 C11        -4.6460   -1.6060    0.2740 C.a       1 LIG     -0.107000
     16 C12        -4.9180   -2.9160    0.6220 C.a       1 LIG     -0.127000
     17 C13        -4.2020   -3.9480    0.0430 C.a       1 LIG     -0.102000
     18 C14        -3.2150   -3.6690   -0.8830 C.a       1 LIG     -0.127000
     19 C15        -2.9460   -2.3590   -1.2340 C.a       1 LIG     -0.107000
     20 C16         1.8880    0.8880   -1.0660 C.3       1 LIG     -0.080200
     21 C17         1.9660    2.3140   -0.5850 C.        1 LIG      0.926600
     22 O1          1.7540    2.5720    0.5770 O.3       1 LIG     -0.777300
     23 C18        -2.3060    2.0930   -0.1480 C.3       1 LIG     -0.079200
     24 O2          2.2720    3.2980   -1.4450 O.3       1 LIG     -0.777300
     25 C19        -3.4840    2.5760    0.6590 C.        1 LIG      0.918600
     26 O3         -4.1720    1.7830    1.2560 O.3       1 LIG     -0.771800
     27 O4         -3.7670    3.8860    0.7150 O.3       1 LIG     -0.771800
     28 H           2.8110   -2.6040    1.6280 H         1 LIG      0.133000
     29 H1          4.7180   -3.9450    1.0000 H         1 LIG      0.143000
     30 H2          6.5370   -2.9560   -0.2400 H         1 LIG      0.143000
     31 H3          6.4550   -0.6220   -0.8520 H         1 LIG      0.162000
     32 H4          3.7920    1.5620   -0.0650 H         1 LIG      0.476000
     33 H5          2.6640    0.9850    1.3680 H         1 LIG      0.123700
     34 H6          1.8690   -0.4400    1.9930 H         1 LIG      0.123700
     35 H7          1.2960   -0.9150   -0.3490 H         1 LIG      0.419800
     36 H8          0.0730    1.5330    0.6200 H         1 LIG      0.142700
     37 H9         -0.1770   -0.0140    1.3930 H         1 LIG      0.142700
     38 H10        -1.0310   -0.9500   -0.6920 H         1 LIG      0.121700
     39 H11        -0.7090    0.5540   -1.5210 H         1 LIG      0.121700
     40 H12        -2.4700    0.2980    0.7820 H         1 LIG      0.471800
     41 H13        -3.0470    0.1410   -2.0520 H         1 LIG      0.102700
     42 H14        -4.2440    0.6930   -0.9050 H         1 LIG      0.102700
     43 H15        -5.1810   -0.8360    0.7050 H         1 LIG      0.148000
     44 H16        -5.6550   -3.1240    1.3140 H         1 LIG      0.147500
     45 H17        -4.4050   -4.9260    0.3020 H         1 LIG      0.145000
     46 H18        -2.6790   -4.4390   -1.3130 H         1 LIG      0.147500
     47 H19        -2.2140   -2.1510   -1.9310 H         1 LIG      0.148000
     48 H20         1.2220    0.8290   -1.9010 H         1 LIG      0.085200
     49 H21         2.8620    0.5580   -1.3620 H         1 LIG      0.085200
     50 H22        -2.3840    2.4620   -1.1490 H         1 LIG      0.094200
     51 H23        -1.4000    2.4510    0.2950 H         1 LIG      0.094200
@<TRIPOS>BOND
     1    1    2 ar  
     2    1    6 ar  
     3    1    8 1   
     4    2    3 ar  
     5    3    4 ar  
     6    4    5 ar  
     7    5    6 ar  
     8    6    7 1   
     9    8    9 1   
    10    9   10 1   
    11    9   20 1   
    12   10   11 1   
    13   11   12 1   
    14   12   13 1   
    15   12   23 1   
    16   13   14 1   
    17   14   15 ar  
    18   14   19 ar  
    19   15   16 ar  
    20   16   17 ar  
    21   17   18 ar  
    22   18   19 ar  
    23   20   21 1   
    24   21   22 1   
    25   21   24 1   
    26   23   25 1   
    27   25   26 1   
    28   25   27 1   
    29    2   28 1   
    30    3   29 1   
    31    4   30 1   
    32    5   31 1   
    33    7   32 1   
    34    8   33 1   
    35    8   34 1   
    36    9   35 1   
    37   10   36 1   
    38   10   37 1   
    39   11   38 1   
    40   11   39 1   
    41   12   40 1   
    42   13   41 1   
    43   13   42 1   
    44   15   43 1   
    45   16   44 1   
    46   17   45 1   
    47   18   46 1   
    48   19   47 1   
    49   20   48 1   
    50   20   49 1   
    51   23   50 1   
    52   23   51 1   
@<TRIPOS>SUBSTRUCTURE
     1 LIG         1 TEMP              0 ****  ****    0 ROOT
