@<TRIPOS>MOLECULE
ECQ
   29    29     1     0     0
SMALL
bcc


@<TRIPOS>ATOM
      1 O           2.3590    1.9190    0.1150 o         1 LIG     -0.718500
      2 C           2.2730    0.7130    0.0270 c         1 LIG      0.696500
      3 C1          1.0510   -0.0360   -0.4580 c3        1 LIG     -0.161700
      4 C2          1.2870   -1.4910    0.0080 c3        1 LIG     -0.092400
      5 C3          2.8280   -1.5410    0.1150 c3        1 LIG      0.079000
      6 N           3.2510   -0.1540    0.3410 n         1 LIG     -0.530900
      7 C4         -0.2160    0.5340    0.1850 c3        1 LIG     -0.094400
      8 C5         -1.4440   -0.1580   -0.4100 c3        1 LIG      0.078500
      9 N1         -1.5560    0.1830   -1.8340 n4        1 LIG     -0.842600
     10 C6         -2.7000    0.3120    0.3270 c3        1 LIG      0.131100
     11 O1         -2.5910   -0.0190    1.7130 oh        1 LIG     -0.565800
     12 C7         -3.9290   -0.3800   -0.2680 c3        1 LIG     -0.166100
     13 H           0.9160    0.0390   -1.5170 hc        1 LIG      0.085700
     14 H1          0.9230   -2.1950   -0.7110 hc        1 LIG      0.078200
     15 H2          0.7810   -1.7430    0.9160 hc        1 LIG      0.078200
     16 H3          3.2540   -1.9190   -0.7910 h1        1 LIG      0.073200
     17 H4          3.1500   -2.1880    0.9040 h1        1 LIG      0.073200
     18 H5          4.1380    0.1080    0.6790 hn        1 LIG      0.359500
     19 H6         -0.2710    1.5850   -0.0060 hc        1 LIG      0.101700
     20 H7         -0.1880    0.3650    1.2410 hc        1 LIG      0.101700
     21 H8         -1.3430   -1.2180   -0.3040 hx        1 LIG      0.103700
     22 H9         -1.6520    1.1930   -1.9350 hn        1 LIG      0.467800
     23 H10        -2.3750   -0.2780   -2.2310 hn        1 LIG      0.467800
     24 H11        -0.7190   -0.1300   -2.3250 hn        1 LIG      0.467800
     25 H12        -2.8010    1.3720    0.2210 h1        1 LIG      0.100700
     26 H13        -2.5000   -0.9800    1.8100 ho        1 LIG      0.424000
     27 H14        -3.8280   -1.4400   -0.1620 hc        1 LIG      0.069033
     28 H15        -4.0110   -0.1320   -1.3060 hc        1 LIG      0.069033
     29 H16        -4.8080   -0.0520    0.2470 hc        1 LIG      0.069033
@<TRIPOS>BOND
     1    1    2 2   
     2    2    3 1   
     3    2    6 1   
     4    3    7 1   
     5    3    4 1   
     6    4    5 1   
     7    5    6 1   
     8    7    8 1   
     9    8    9 1   
    10    8   10 1   
    11   10   11 1   
    12   10   12 1   
    13    3   13 1   
    14    4   14 1   
    15    4   15 1   
    16    5   16 1   
    17    5   17 1   
    18    6   18 1   
    19    7   19 1   
    20    7   20 1   
    21    8   21 1   
    22    9   22 1   
    23    9   23 1   
    24    9   24 1   
    25   10   25 1   
    26   11   26 1   
    27   12   27 1   
    28   12   28 1   
    29   12   29 1   
@<TRIPOS>SUBSTRUCTURE
     1 LIG         1 TEMP              0 ****  ****    0 ROOT
