@<TRIPOS>MOLECULE
MSO
   21    20     1     0     0
SMALL
bcc


@<TRIPOS>ATOM
      1 N           1.8600   -0.1690   -2.1290 N.4       1 LIG     -0.819600
      2 CA          0.4430   -0.5590   -2.1400 C.3       1 LIG     -0.075500
      3 C          -0.2400   -0.0290   -0.8780 C.3       1 LIG     -0.064400
      4 C1         -0.2280    0.0200   -3.3570 C.        1 LIG      0.936600
      5 C2          0.4410   -0.6190    0.3570 C.3       1 LIG     -0.100100
      6 SE         -0.4350    0.0600    1.9730 S.4       1 LIG      0.263600
      7 O           0.3870    1.3760    2.0310 O.3       1 LIG     -0.567200
      8 C3          0.7200   -0.9170    3.2180 C.3       1 LIG     -0.124800
      9 O1          0.1650    1.0620   -3.8260 O.3       1 LIG     -0.762300
     10 OXT        -1.2640   -0.6190   -3.9220 O.3       1 LIG     -0.762300
     11 H1          2.3140   -0.5610   -1.3040 H         1 LIG      0.451467
     12 H2          1.9330    0.8480   -2.1050 H         1 LIG      0.451467
     13 H3          2.3170   -0.5230   -2.9700 H         1 LIG      0.451467
     14 HA          0.3660   -1.6260   -2.1660 H         1 LIG      0.084700
     15 H          -1.2720   -0.3120   -0.8850 H         1 LIG      0.088200
     16 H4         -0.1630    1.0380   -0.8520 H         1 LIG      0.088200
     17 H5          1.4730   -0.3360    0.3650 H         1 LIG      0.089700
     18 H6          0.3640   -1.6860    0.3310 H         1 LIG      0.089700
     19 H7          0.3420   -1.9090    3.3510 H         1 LIG      0.093033
     20 H8          0.7360   -0.4120    4.1610 H         1 LIG      0.093033
     21 H9          1.7130   -0.9630    2.8220 H         1 LIG      0.093033
@<TRIPOS>BOND
     1    1    2 1   
     2    2    3 1   
     3    2    4 1   
     4    3    5 1   
     5    4    9 1   
     6    4   10 1   
     7    5    6 1   
     8    6    7 2   
     9    6    8 1   
    10    1   11 1   
    11    1   12 1   
    12    1   13 1   
    13    2   14 1   
    14    3   15 1   
    15    3   16 1   
    16    5   17 1   
    17    5   18 1   
    18    8   19 1   
    19    8   20 1   
    20    8   21 1   
@<TRIPOS>SUBSTRUCTURE
     1 LIG         1 TEMP              0 ****  ****    0 ROOT
