@<TRIPOS>MOLECULE
3PL
   20    20     1     0     0
SMALL
bcc


@<TRIPOS>ATOM
      1 C           0.3530    0.0420   -3.2450 c         1 LIG      0.563900
      2 O          -0.5160    0.3100   -4.0380 o         1 LIG     -0.525100
      3 C1          0.2080    0.4510   -1.8020 c3        1 LIG     -0.201400
      4 C2          0.2350   -0.7930   -0.9130 c3        1 LIG     -0.031100
      5 C3          0.0910   -0.3850    0.5290 ca        1 LIG     -0.084300
      6 C4          1.2140   -0.1100    1.2860 ca        1 LIG     -0.125500
      7 C5          1.0810    0.2680    2.6080 ca        1 LIG     -0.126500
      8 C6         -0.1740    0.3640    3.1770 ca        1 LIG     -0.129000
      9 C7         -1.2980    0.0850    2.4220 ca        1 LIG     -0.126500
     10 C8         -1.1650   -0.2900    1.0980 ca        1 LIG     -0.125500
     11 H           1.1950   -0.4670   -3.5550 h4        1 LIG     -0.006800
     12 H1         -0.7210    0.9640   -1.6690 hc        1 LIG      0.078700
     13 H2          1.0160    1.0990   -1.5330 hc        1 LIG      0.078700
     14 H3          1.1640   -1.3060   -1.0470 hc        1 LIG      0.050700
     15 H4         -0.5730   -1.4400   -1.1820 hc        1 LIG      0.050700
     16 H5          2.1520   -0.1870    0.8640 ha        1 LIG      0.132000
     17 H6          1.9200    0.4790    3.1710 ha        1 LIG      0.132500
     18 H7         -0.2730    0.6440    4.1650 ha        1 LIG      0.133000
     19 H8         -2.2360    0.1570    2.8460 ha        1 LIG      0.132500
     20 H9         -2.0040   -0.4990    0.5340 ha        1 LIG      0.132000
@<TRIPOS>BOND
     1    1    2 2   
     2    1    3 1   
     3    3    4 1   
     4    4    5 1   
     5    5    6 ar  
     6    5   10 ar  
     7    6    7 ar  
     8    7    8 ar  
     9    8    9 ar  
    10    9   10 ar  
    11    1   11 1   
    12    3   12 1   
    13    3   13 1   
    14    4   14 1   
    15    4   15 1   
    16    6   16 1   
    17    7   17 1   
    18    8   18 1   
    19    9   19 1   
    20   10   20 1   
@<TRIPOS>SUBSTRUCTURE
     1 LIG         1 TEMP              0 ****  ****    0 ROOT
