@<TRIPOS>MOLECULE
F91
   32    34     1     0     0
SMALL
bcc


@<TRIPOS>ATOM
      1 C           2.6880    0.6220   -0.0340 ca        1 LIG      0.093100
      2 O           3.5820    1.6460   -0.1030 os        1 LIG     -0.317900
      3 C1          4.9270    1.3530    0.2890 c3        1 LIG      0.091400
      4 C2          5.3450    0.0330   -0.3740 c3        1 LIG      0.091400
      5 O1          4.4500   -0.9930    0.0690 os        1 LIG     -0.315900
      6 C3          3.1210   -0.6970    0.0460 ca        1 LIG      0.016100
      7 C4          2.1940   -1.7270    0.1100 ca        1 LIG     -0.086000
      8 C5          0.8410   -1.4460    0.0900 ca        1 LIG     -0.184000
      9 C6          0.4060   -0.1300    0.0060 ca        1 LIG      0.139600
     10 N          -0.9640    0.1540   -0.0120 nh        1 LIG     -0.721600
     11 C7         -1.9390   -0.9370    0.0570 c3        1 LIG      0.222100
     12 C8         -3.3340   -0.3670    0.0210 ca        1 LIG     -0.066300
     13 C9          1.3300    0.9040   -0.0490 ca        1 LIG     -0.183000
     14 C10        -3.9890   -0.0180    1.1920 ca        1 LIG     -0.236300
     15 C11        -5.2670    0.5020    1.1190 ca        1 LIG      0.392700
     16 N1         -5.8640    0.6660   -0.0460 nb        1 LIG     -0.660000
     17 C12        -5.2710    0.3450   -1.1790 ca        1 LIG      0.392700
     18 C13        -3.9900   -0.1740   -1.1850 ca        1 LIG     -0.236300
     19 H           4.9810    1.2560    1.3530 h1        1 LIG      0.069200
     20 H1          5.5810    2.1430   -0.0170 h1        1 LIG      0.069200
     21 H2          6.3470   -0.2130   -0.0910 h1        1 LIG      0.068700
     22 H3          5.3040    0.1250   -1.4390 h1        1 LIG      0.068700
     23 H4          2.5150   -2.7060    0.1730 ha        1 LIG      0.150000
     24 H5          0.1540   -2.2140    0.1380 ha        1 LIG      0.137000
     25 H6         -1.2730    1.0870   -0.0710 hn        1 LIG      0.397800
     26 H7         -1.8000   -1.4830    0.9670 h1        1 LIG      0.053700
     27 H8         -1.8000   -1.5930   -0.7770 h1        1 LIG      0.053700
     28 H9          1.0070    1.8830   -0.1010 ha        1 LIG      0.151000
     29 H10        -3.5280   -0.1450    2.1070 ha        1 LIG      0.150500
     30 H11        -5.7610    0.7650    1.9860 h4        1 LIG      0.024600
     31 H12        -5.7690    0.4830   -2.0720 h4        1 LIG      0.024600
     32 H13        -3.5280   -0.4150   -2.0760 ha        1 LIG      0.150500
@<TRIPOS>BOND
     1    1   13 ar  
     2    2    1 1   
     3    3    2 1   
     4    3    4 1   
     5    4    5 1   
     6    5    6 1   
     7    6    1 ar  
     8    6    7 ar  
     9    7    8 ar  
    10    8    9 ar  
    11    9   10 1   
    12   10   11 1   
    13   12   11 1   
    14   12   18 ar  
    15   13    9 ar  
    16   14   12 ar  
    17   15   14 ar  
    18   15   16 ar  
    19   16   17 ar  
    20   17   18 ar  
    21    3   19 1   
    22    3   20 1   
    23    4   21 1   
    24    4   22 1   
    25    7   23 1   
    26    8   24 1   
    27   10   25 1   
    28   11   26 1   
    29   11   27 1   
    30   13   28 1   
    31   14   29 1   
    32   15   30 1   
    33   17   31 1   
    34   18   32 1   
@<TRIPOS>SUBSTRUCTURE
     1 LIG         1 TEMP              0 ****  ****    0 ROOT
