@<TRIPOS>MOLECULE
RAS
   29    30     1     0     0
SMALL
bcc


@<TRIPOS>ATOM
      1 N          -1.5120    0.8750   -0.3000 n4        1 LIG     -0.767000
      2 C          -2.4670    0.1600    0.5570 c3        1 LIG      0.151000
      3 C1         -3.7400   -0.0900   -0.2090 c2        1 LIG     -0.273200
      4 C2         -4.2090   -1.3080   -0.3220 c2        1 LIG     -0.106000
      5 C3         -0.2560    1.1370    0.4150 c3        1 LIG      0.186800
      6 C4          0.4610    2.3610   -0.1930 c3        1 LIG     -0.099400
      7 C5          1.9500    1.9800   -0.0450 c3        1 LIG     -0.048100
      8 C6          1.9720    0.4660   -0.0350 ca        1 LIG     -0.052300
      9 C7          0.7050   -0.0180    0.2290 ca        1 LIG     -0.190300
     10 C8          0.4870   -1.3850    0.2850 ca        1 LIG     -0.092000
     11 C9          3.0180   -0.4170   -0.2420 ca        1 LIG     -0.107000
     12 C10         2.7990   -1.7800   -0.1850 ca        1 LIG     -0.077000
     13 C11         1.5320   -2.2640    0.0790 ca        1 LIG     -0.124000
     14 H          -1.9230    1.7630   -0.5890 hn        1 LIG      0.448300
     15 H1         -1.3080    0.2940   -1.1130 hn        1 LIG      0.448300
     16 H2         -2.6820    0.7510    1.4220 hx        1 LIG      0.104700
     17 H3         -2.0440   -0.7750    0.8600 hx        1 LIG      0.104700
     18 H4         -4.2430    0.6990   -0.6450 ha        1 LIG      0.153000
     19 H5         -3.7060   -2.0970    0.1140 ha        1 LIG      0.143000
     20 H6         -5.0810   -1.4780   -0.8470 ha        1 LIG      0.143000
     21 H7         -0.5060    1.2890    1.4440 hx        1 LIG      0.112700
     22 H8          0.2340    3.2530    0.3520 hc        1 LIG      0.077700
     23 H9          0.1710    2.5690   -1.2020 hc        1 LIG      0.077700
     24 H10         2.3480    2.3670    0.8700 hc        1 LIG      0.085700
     25 H11         2.5470    2.3840   -0.8360 hc        1 LIG      0.085700
     26 H12        -0.4590   -1.7480    0.4810 ha        1 LIG      0.133000
     27 H13         3.9640   -0.0560   -0.4400 ha        1 LIG      0.162000
     28 H14         3.5810   -2.4360   -0.3390 ha        1 LIG      0.161000
     29 H15         1.3670   -3.2820    0.1220 ha        1 LIG      0.158000
@<TRIPOS>BOND
     1    1    2 1   
     2    1    5 1   
     3    2    3 1   
     4    3    4 2   
     5    5    6 1   
     6    5    9 1   
     7    6    7 1   
     8    7    8 1   
     9    8    9 ar  
    10    8   11 ar  
    11    9   10 ar  
    12   10   13 ar  
    13   11   12 ar  
    14   12   13 ar  
    15    1   14 1   
    16    1   15 1   
    17    2   16 1   
    18    2   17 1   
    19    3   18 1   
    20    4   19 1   
    21    4   20 1   
    22    5   21 1   
    23    6   22 1   
    24    6   23 1   
    25    7   24 1   
    26    7   25 1   
    27   10   26 1   
    28   11   27 1   
    29   12   28 1   
    30   13   29 1   
@<TRIPOS>SUBSTRUCTURE
     1 LIG         1 TEMP              0 ****  ****    0 ROOT
