@<TRIPOS>MOLECULE
GCO
   24    23     1     0     0
SMALL
bcc


@<TRIPOS>ATOM
      1 C          -0.3620    0.1570   -2.8950 c         1 LIG      0.894600
      2 C1          0.3210    0.6350   -1.6400 c3        1 LIG     -0.028900
      3 C2         -0.3400   -0.0080   -0.4210 c3        1 LIG      0.098100
      4 C3          0.3540    0.4770    0.8520 c3        1 LIG      0.133100
      5 C4         -0.3080   -0.1660    2.0720 c3        1 LIG      0.082100
      6 C5          0.3860    0.3190    3.3450 c3        1 LIG      0.108400
      7 O           0.2670   -0.4360   -3.7380 o         1 LIG     -0.824800
      8 O1         -1.6710    0.3900   -3.0760 o         1 LIG     -0.824800
      9 O2          1.7020    0.2690   -1.6810 oh        1 LIG     -0.632800
     10 O3         -0.2270   -1.4300   -0.5120 oh        1 LIG     -0.637800
     11 O4          1.7340    0.1110    0.8110 oh        1 LIG     -0.616800
     12 O5         -1.6890    0.1990    2.1130 oh        1 LIG     -0.609800
     13 O6         -0.2320   -0.2820    4.4850 oh        1 LIG     -0.617800
     14 H           0.2350    1.6990   -1.5710 h1        1 LIG      0.064700
     15 H1         -1.3740    0.2670   -0.3910 h1        1 LIG      0.060700
     16 H2          0.2690    1.5410    0.9200 h1        1 LIG      0.035700
     17 H3         -0.2230   -1.2300    2.0040 h1        1 LIG      0.103700
     18 H4          0.3010    1.3830    3.4130 h1        1 LIG      0.048200
     19 H5          1.4190    0.0440    3.3140 h1        1 LIG      0.048200
     20 H6          1.7790   -0.6960   -1.7430 ho        1 LIG      0.423000
     21 H7          0.7100   -1.6790   -0.5400 ho        1 LIG      0.448000
     22 H8          1.8110   -0.8540    0.7490 ho        1 LIG      0.442000
     23 H9         -1.7670    1.1640    2.1750 ho        1 LIG      0.397000
     24 H10        -1.1690   -0.0330    4.5140 ho        1 LIG      0.407000
@<TRIPOS>BOND
     1    1    2 1   
     2    1    7 1   
     3    1    8 1   
     4    2    3 1   
     5    2    9 1   
     6    3    4 1   
     7    3   10 1   
     8    4    5 1   
     9    4   11 1   
    10    5    6 1   
    11    5   12 1   
    12    6   13 1   
    13    2   14 1   
    14    3   15 1   
    15    4   16 1   
    16    5   17 1   
    17    6   18 1   
    18    6   19 1   
    19    9   20 1   
    20   10   21 1   
    21   11   22 1   
    22   12   23 1   
    23   13   24 1   
@<TRIPOS>SUBSTRUCTURE
     1 LIG         1 TEMP              0 ****  ****    0 ROOT
