@<TRIPOS>MOLECULE
H1L
   34    35     1     0     0
SMALL
bcc


@<TRIPOS>ATOM
      1 O           6.2140   -2.0400   -0.6890 o         1 LIG     -0.811800
      2 C           6.1830   -1.3880    0.3270 c         1 LIG      0.933600
      3 O1          6.9590   -1.7310    1.3680 o         1 LIG     -0.811800
      4 C1          5.2790   -0.1870    0.4250 c3        1 LIG     -0.009900
      5 C2          6.1260    1.0790    0.5690 c3        1 LIG     -0.111100
      6 O2          4.4810   -0.0940   -0.7570 os        1 LIG     -0.280900
      7 C3          3.2200    0.3930   -0.6140 ca        1 LIG      0.185100
      8 C4          2.8040    0.8910    0.6120 ca        1 LIG     -0.200000
      9 C5          1.5230    1.3860    0.7580 ca        1 LIG     -0.078500
     10 C6          2.3510    0.3970   -1.6950 ca        1 LIG     -0.200000
     11 C7          1.0700    0.8920   -1.5490 ca        1 LIG     -0.078500
     12 C8          0.6520    1.3850   -0.3220 ca        1 LIG     -0.004900
     13 O3         -0.6100    1.8720   -0.1780 os        1 LIG     -0.340400
     14 C9         -1.6310    0.9810   -0.1040 ca        1 LIG      0.679600
     15 N          -1.3890   -0.3090   -0.2680 nb        1 LIG     -0.694000
     16 C10        -2.3530   -1.2070   -0.2040 ca        1 LIG      0.489200
     17 C11        -3.6590   -0.8300    0.0390 ca        1 LIG     -0.346600
     18 C12        -4.7510   -1.8660    0.1100 c3        1 LIG      0.703200
     19 F          -4.2020   -3.1360   -0.1000 f         1 LIG     -0.240633
     20 F1         -5.3540   -1.8220    1.3710 f         1 LIG     -0.240633
     21 F2         -5.7080   -1.6030   -0.8750 f         1 LIG     -0.240633
     22 C13        -3.9550    0.5140    0.2170 ca        1 LIG     -0.021000
     23 C14        -2.9210    1.4330    0.1490 ca        1 LIG     -0.143900
     24 Cl         -3.2330    3.1260    0.3710 cl        1 LIG     -0.054400
     25 H           4.6420   -0.2890    1.2790 h1        1 LIG      0.039700
     26 H1          6.7630    1.1810   -0.2850 hc        1 LIG      0.034700
     27 H2          6.7240    1.0100    1.4540 hc        1 LIG      0.034700
     28 H3          5.4840    1.9320    0.6390 hc        1 LIG      0.034700
     29 H4          3.4520    0.8920    1.4150 ha        1 LIG      0.152500
     30 H5          1.2140    1.7560    1.6700 ha        1 LIG      0.132000
     31 H6          2.6620    0.0300   -2.6080 ha        1 LIG      0.152500
     32 H7          0.4230    0.8950   -2.3530 ha        1 LIG      0.132000
     33 H8         -2.1280   -2.2050   -0.3370 h4        1 LIG      0.045100
     34 H9         -4.9240    0.8220    0.3960 ha        1 LIG      0.161000
@<TRIPOS>BOND
     1    1    2 1   
     2    2    3 1   
     3    2    4 1   
     4    4    5 1   
     5    4    6 1   
     6    6    7 1   
     7    7    8 ar  
     8    7   10 ar  
     9    8    9 ar  
    10    9   12 ar  
    11   10   11 ar  
    12   11   12 ar  
    13   12   13 1   
    14   13   14 1   
    15   14   15 ar  
    16   14   23 ar  
    17   15   16 ar  
    18   16   17 ar  
    19   17   18 1   
    20   17   22 ar  
    21   18   19 1   
    22   18   20 1   
    23   18   21 1   
    24   22   23 ar  
    25   23   24 1   
    26    4   25 1   
    27    5   26 1   
    28    5   27 1   
    29    5   28 1   
    30    8   29 1   
    31    9   30 1   
    32   10   31 1   
    33   11   32 1   
    34   16   33 1   
    35   22   34 1   
@<TRIPOS>SUBSTRUCTURE
     1 LIG         1 TEMP              0 ****  ****    0 ROOT
