@<TRIPOS>MOLECULE
30U
   37    39     1     0     0
SMALL
bcc


@<TRIPOS>ATOM
      1 C          -4.0230   -2.7960    0.0030 ca        1 LIG     -0.074000
      2 C1         -5.0250   -1.8690    0.0020 ca        1 LIG     -0.232300
      3 C2         -4.7130   -0.5040    0.0010 ca        1 LIG      0.499600
      4 C3         -3.3550   -0.1010   -0.0000 ca        1 LIG     -0.347600
      5 C4         -2.3420   -1.0730    0.0010 ca        1 LIG      0.186100
      6 C5         -2.6880   -2.4090    0.0020 ca        1 LIG     -0.236000
      7 O          -1.0360   -0.7030    0.0010 os        1 LIG     -0.360900
      8 C6         -0.0650   -1.7510    0.0020 c3        1 LIG      0.179700
      9 C7          1.3190   -1.1530    0.0010 ca        1 LIG     -0.134300
     10 C8          1.9530   -0.8780    1.1980 ca        1 LIG     -0.155000
     11 C9          3.2220   -0.3300    1.1980 ca        1 LIG     -0.049500
     12 C10         3.8570   -0.0560    0.0000 ca        1 LIG     -0.233500
     13 C11         3.2220   -0.3320   -1.1970 ca        1 LIG     -0.049500
     14 C12         1.9560   -0.8860   -1.1960 ca        1 LIG     -0.155000
     15 S           5.4740    0.6440   -0.0000 s6        1 LIG      1.459100
     16 O1          5.6260    1.3010   -1.2510 o         1 LIG     -0.741200
     17 O2          5.6250    1.3040    1.2490 o         1 LIG     -0.741200
     18 C13        -3.0650    1.2840   -0.0020 ca        1 LIG      0.768200
     19 N          -4.0780    2.1390   -0.0040 nb        1 LIG     -0.855000
     20 C14        -5.3400    1.7190   -0.0030 ca        1 LIG      0.905900
     21 N1         -5.6660    0.4400   -0.0010 nb        1 LIG     -0.818000
     22 N2         -6.3520    2.6610   -0.0040 nh        1 LIG     -0.917500
     23 N3         -1.7620    1.7330   -0.0030 nh        1 LIG     -0.938500
     24 O3          6.4650   -0.5110    0.0010 o         1 LIG     -0.741200
     25 H          -4.2610   -3.8000    0.0040 ha        1 LIG      0.125000
     26 H1         -6.0110   -2.1740    0.0020 ha        1 LIG      0.143000
     27 H2         -1.9480   -3.1280    0.0020 ha        1 LIG      0.136000
     28 H3         -0.1930   -2.3570   -0.8710 h1        1 LIG      0.053200
     29 H4         -0.1920   -2.3550    0.8760 h1        1 LIG      0.053200
     30 H5          1.4790   -1.0820    2.0920 ha        1 LIG      0.118000
     31 H6          3.6960   -0.1250    2.0920 ha        1 LIG      0.150500
     32 H7          3.6940   -0.1240   -2.0910 ha        1 LIG      0.150500
     33 H8          1.4860   -1.1000   -2.0890 ha        1 LIG      0.118000
     34 H9         -6.1310    3.6200   -0.0050 hn        1 LIG      0.409800
     35 H10        -7.2930    2.3720   -0.0030 hn        1 LIG      0.409800
     36 H11        -1.0190    1.0870   -0.0020 hn        1 LIG      0.458300
     37 H12        -1.5740    2.7000   -0.0050 hn        1 LIG      0.458300
@<TRIPOS>BOND
     1    1    2 ar  
     2    1    6 ar  
     3    2    3 ar  
     4    3   21 ar  
     5    3    4 ar  
     6    4   18 ar  
     7    5    4 ar  
     8    5    7 1   
     9    6    5 ar  
    10    7    8 1   
    11    9   10 ar  
    12    9    8 1   
    13   11   10 ar  
    14   12   11 ar  
    15   13   12 ar  
    16   13   14 ar  
    17   14    9 ar  
    18   15   16 1   
    19   15   12 1   
    20   15   24 1   
    21   17   15 1   
    22   18   19 ar  
    23   18   23 1   
    24   20   22 1   
    25   20   19 ar  
    26   21   20 ar  
    27    1   25 1   
    28    2   26 1   
    29    6   27 1   
    30    8   28 1   
    31    8   29 1   
    32   10   30 1   
    33   11   31 1   
    34   13   32 1   
    35   14   33 1   
    36   22   34 1   
    37   22   35 1   
    38   23   36 1   
    39   23   37 1   
@<TRIPOS>SUBSTRUCTURE
     1 LIG         1 TEMP              0 ****  ****    0 ROOT
