@<TRIPOS>MOLECULE
200
   23    23     1     0     0
SMALL
bcc


@<TRIPOS>ATOM
      1 N          -1.9480    1.4530   -0.8120 n4        1 LIG     -0.835600
      2 CA         -2.1970    0.0590   -0.4220 c3        1 LIG     -0.071500
      3 C          -3.6690   -0.1340   -0.1610 c         1 LIG      0.937600
      4 O          -4.3720    0.8210    0.0710 o         1 LIG     -0.754800
      5 OXT        -4.1990   -1.3670   -0.1850 o         1 LIG     -0.754800
      6 C1         -1.4070   -0.2640    0.8480 c3        1 LIG     -0.051100
      7 C2          0.0690   -0.1910    0.5530 ca        1 LIG     -0.112300
      8 C3          0.7460   -1.3190    0.1290 ca        1 LIG     -0.131000
      9 C4          0.7470    1.0040    0.7130 ca        1 LIG     -0.131000
     10 C5          2.0990   -1.2500   -0.1460 ca        1 LIG     -0.119500
     11 C6          2.1000    1.0720    0.4430 ca        1 LIG     -0.119500
     12 C7          2.7780   -0.0550    0.0130 ca        1 LIG      0.016400
     13 Cl          4.4780    0.0300   -0.3260 cl        1 LIG     -0.081400
     14 H1         -2.4750    1.6680   -1.6590 hn        1 LIG      0.444800
     15 H2         -0.9520    1.5840   -0.9890 hn        1 LIG      0.444800
     16 H3         -2.2440    2.0750   -0.0600 hn        1 LIG      0.444800
     17 HA         -1.8860   -0.5930   -1.2110 hx        1 LIG      0.089700
     18 H          -1.6560   -1.2500    1.1820 hc        1 LIG      0.095200
     19 H4         -1.6540    0.4440    1.6110 hc        1 LIG      0.095200
     20 H5          0.2420   -2.2120    0.0180 ha        1 LIG      0.142500
     21 H6          0.2420    1.8450    1.0340 ha        1 LIG      0.142500
     22 H7          2.6030   -2.0900   -0.4700 ha        1 LIG      0.153500
     23 H8          2.6050    1.9640    0.5620 ha        1 LIG      0.153500
@<TRIPOS>BOND
     1    1    2 1   
     2    2    3 1   
     3    2    6 1   
     4    3    4 1   
     5    3    5 1   
     6    6    7 1   
     7    7    8 ar  
     8    7    9 ar  
     9    8   10 ar  
    10    9   11 ar  
    11   10   12 ar  
    12   11   12 ar  
    13   12   13 1   
    14    1   14 1   
    15    1   15 1   
    16    1   16 1   
    17    2   17 1   
    18    6   18 1   
    19    6   19 1   
    20    8   20 1   
    21    9   21 1   
    22   10   22 1   
    23   11   23 1   
@<TRIPOS>SUBSTRUCTURE
     1 LIG         1 TEMP              0 ****  ****    0 ROOT
