@<TRIPOS>MOLECULE
KKN
   17    18     1     0     0
SMALL
bcc


@<TRIPOS>ATOM
      1 O           2.7290   -0.4290    0.0000 os        1 LIG     -0.383800
      2 C           1.7200   -1.3110    0.0000 cc        1 LIG      0.315600
      3 C1          0.4380   -0.8820    0.0000 cd        1 LIG     -0.069200
      4 C2          0.1900    0.5660    0.0000 cd        1 LIG      0.009000
      5 C3          1.3050    1.4360   -0.0010 cd        1 LIG     -0.265300
      6 C4          2.5410    0.8960    0.0000 cc        1 LIG      0.341600
      7 C5         -1.1940    0.7180   -0.0000 cc        1 LIG     -0.205400
      8 C6         -1.7460   -0.5570   -0.0000 c         1 LIG      0.717800
      9 O1         -2.9430   -0.8000   -0.0000 o         1 LIG     -0.545500
     10 O2         -0.7710   -1.4850   -0.0000 os        1 LIG     -0.322200
     11 C7         -1.9500    2.0220    0.0000 c3        1 LIG     -0.026900
     12 H           1.9230   -2.3230    0.0000 h4        1 LIG      0.066100
     13 H1          1.1760    2.4600   -0.0030 ha        1 LIG      0.164000
     14 H2          3.3630    1.5200    0.0010 h4        1 LIG      0.048100
     15 H3         -1.2560    2.8370    0.0000 hc        1 LIG      0.053033
     16 H4         -2.5650    2.0780    0.8740 hc        1 LIG      0.053033
     17 H5         -2.5650    2.0780   -0.8740 hc        1 LIG      0.053033
@<TRIPOS>BOND
     1    1    2 ar  
     2    2    3 ar  
     3    3   10 1   
     4    4    3 ar  
     5    4    7 2   
     6    5    4 ar  
     7    6    1 ar  
     8    6    5 ar  
     9    7   11 1   
    10    7    8 1   
    11    8    9 2   
    12   10    8 1   
    13    2   12 1   
    14    5   13 1   
    15    6   14 1   
    16   11   15 1   
    17   11   16 1   
    18   11   17 1   
@<TRIPOS>SUBSTRUCTURE
     1 LIG         1 TEMP              0 ****  ****    0 ROOT
