@<TRIPOS>MOLECULE
60K
   36    38     1     0     0
SMALL
bcc


@<TRIPOS>ATOM
      1 S          -5.8300    0.8690   -0.0790 sy        1 LIG      1.538200
      2 C          -4.2120    0.1710   -0.0610 ca        1 LIG     -0.464500
      3 N          -6.2920    1.0760    1.4980 n3        1 LIG     -1.024700
      4 O          -5.6990    2.1710   -0.6330 o         1 LIG     -0.670800
      5 C1         -4.0540   -1.2030   -0.0490 ca        1 LIG      0.018000
      6 N1         -0.3910   -1.4780   -0.0170 nh        1 LIG     -0.454700
      7 O1         -6.6890   -0.1240   -0.6220 o         1 LIG     -0.670800
      8 C2         -2.7880   -1.7530   -0.0340 ca        1 LIG     -0.213000
      9 N2          0.6440   -0.7080   -0.0160 n2        1 LIG     -0.350400
     10 O2          1.4330   -3.5910    0.0240 o         1 LIG     -0.667500
     11 C3         -1.6720   -0.9250   -0.0320 ca        1 LIG      0.266600
     12 N3          3.5520   -2.7440    0.0290 n         1 LIG     -0.463100
     13 O3          4.3310    3.4920   -0.0230 o         1 LIG     -0.822300
     14 C4          1.8510   -1.2290   -0.0010 cc        1 LIG      0.358900
     15 O4          6.4950    2.9990    0.0060 o         1 LIG     -0.822300
     16 C5          2.2120   -2.6560    0.0190 c         1 LIG      0.592200
     17 C6          4.1450   -1.4920    0.0230 ca        1 LIG      0.019600
     18 C7          5.4840   -1.1050    0.0340 ca        1 LIG     -0.179000
     19 C8          5.8210    0.2290    0.0250 ca        1 LIG     -0.071000
     20 C9          4.8260    1.2120    0.0050 ca        1 LIG     -0.152600
     21 C10         5.1960    2.6400   -0.0050 c         1 LIG      0.912200
     22 C11         3.4810    0.8370   -0.0070 ca        1 LIG     -0.020000
     23 C12         3.1450   -0.5070    0.0030 ca        1 LIG     -0.204900
     24 C13        -1.8350    0.4550   -0.0450 ca        1 LIG     -0.213000
     25 C14        -3.1040    0.9980   -0.0650 ca        1 LIG      0.018000
     26 H          -6.4000    0.1650    1.9430 hn        1 LIG      0.441300
     27 H1         -7.1800    1.5770    1.5290 hn        1 LIG      0.441300
     28 H2         -4.8830   -1.8170   -0.0510 ha        1 LIG      0.147000
     29 H3         -0.2770   -2.4560   -0.0070 hn        1 LIG      0.458800
     30 H4         -2.6700   -2.7780   -0.0240 ha        1 LIG      0.157500
     31 H5          4.0510   -3.5930    0.0390 hn        1 LIG      0.333500
     32 H6          6.2260   -1.8220    0.0490 ha        1 LIG      0.121000
     33 H7          6.8150    0.5060    0.0330 ha        1 LIG      0.162000
     34 H8          2.7420    1.5570   -0.0230 ha        1 LIG      0.174000
     35 H9         -1.0080    1.0730   -0.0400 ha        1 LIG      0.157500
     36 H10        -3.2260    2.0230   -0.0830 ha        1 LIG      0.147000
@<TRIPOS>BOND
     1    1    7 2   
     2    1    2 1   
     3    2    5 ar  
     4    2   25 ar  
     5    3    1 1   
     6    4    1 2   
     7    5    8 ar  
     8    6    9 1   
     9    8   11 ar  
    10    9   14 2   
    11   11    6 1   
    12   13   21 1   
    13   14   23 1   
    14   14   16 1   
    15   16   10 2   
    16   16   12 1   
    17   17   12 1   
    18   17   18 ar  
    19   19   18 ar  
    20   20   19 ar  
    21   21   15 1   
    22   21   20 1   
    23   22   20 ar  
    24   22   23 ar  
    25   23   17 ar  
    26   24   11 ar  
    27   25   24 ar  
    28    3   26 1   
    29    3   27 1   
    30    5   28 1   
    31    6   29 1   
    32    8   30 1   
    33   12   31 1   
    34   18   32 1   
    35   19   33 1   
    36   22   34 1   
    37   24   35 1   
    38   25   36 1   
@<TRIPOS>SUBSTRUCTURE
     1 LIG         1 TEMP              0 ****  ****    0 ROOT
