@<TRIPOS>MOLECULE
8H6
   56    55     1     0     0
SMALL
bcc


@<TRIPOS>ATOM
      1 O           7.5820    1.9110    2.0510 oh        1 LIG     -0.599800
      2 O1          5.7110   -1.8280    0.1930 o         1 LIG     -0.621100
      3 C           5.5830   -0.7970   -0.4320 c         1 LIG      0.625100
      4 C1          6.7930   -0.1130   -1.0140 c3        1 LIG      0.083100
      5 C2          7.1190    1.1340   -0.1900 c3        1 LIG     -0.076000
      6 C3          5.9830    2.1500   -0.3310 c3        1 LIG     -0.089100
      7 C4          7.2770    0.7470    1.2810 c3        1 LIG      0.125400
      8 C5          8.4230    1.7540   -0.6970 c3        1 LIG     -0.089100
      9 O2          7.9060   -1.0080   -0.9840 oh        1 LIG     -0.580800
     10 N           4.3580   -0.2630   -0.6070 n         1 LIG     -0.550900
     11 C6          3.1710   -0.9820   -0.1360 c3        1 LIG      0.090000
     12 C7          1.9190   -0.1630   -0.4560 c3        1 LIG     -0.188400
     13 C8          0.6980   -0.9030    0.0290 c         1 LIG      0.657100
     14 O3          0.8180   -1.9780    0.5760 o         1 LIG     -0.602100
     15 N1         -0.5270   -0.3680   -0.1460 n         1 LIG     -0.567900
     16 C9         -1.7130   -1.0870    0.3250 c3        1 LIG      0.098000
     17 C10        -2.9660   -0.2690    0.0050 c3        1 LIG     -0.080300
     18 S          -4.4320   -1.1570    0.5870 ss        1 LIG     -0.175700
     19 C11        -5.6540   -0.0530    0.1170 c         1 LIG      0.565700
     20 O4         -5.3550    0.9810   -0.4430 o         1 LIG     -0.541100
     21 C12        -7.1010   -0.3660    0.3990 c3        1 LIG     -0.258700
     22 C13        -7.4880   -1.6680   -0.3050 c3        1 LIG     -0.100100
     23 C14        -7.9660    0.7570   -0.1100 c         1 LIG      0.578100
     24 O5         -7.6130    1.4060   -1.0660 o         1 LIG     -0.511100
     25 C15        -9.2720    1.0710    0.5720 c3        1 LIG     -0.184400
     26 C16        -9.9490    2.2460   -0.1370 c3        1 LIG     -0.087100
     27 H           7.6820    1.6650    2.9840 ho        1 LIG      0.404000
     28 H1          6.5910    0.1710   -2.0260 h1        1 LIG      0.091700
     29 H2          5.8720    2.4210   -1.3600 hc        1 LIG      0.045367
     30 H3          6.2110    3.0220    0.2450 hc        1 LIG      0.045367
     31 H4          5.0710    1.7170    0.0240 hc        1 LIG      0.045367
     32 H5          6.3650    0.3140    1.6360 h1        1 LIG      0.035700
     33 H6          8.0720    0.0370    1.3790 h1        1 LIG      0.035700
     34 H7          8.3130    2.0250   -1.7260 hc        1 LIG      0.045367
     35 H8          9.2170    1.0440   -0.5980 hc        1 LIG      0.045367
     36 H9          8.6510    2.6270   -0.1210 hc        1 LIG      0.045367
     37 H10         8.0890   -1.2650   -0.0670 ho        1 LIG      0.423000
     38 H11         4.2610    0.6100   -1.0510 hn        1 LIG      0.313500
     39 H12         3.2400   -1.1300    0.9210 h1        1 LIG      0.073200
     40 H13         3.1110   -1.9310   -0.6260 h1        1 LIG      0.073200
     41 H14         1.8500   -0.0150   -1.5140 hc        1 LIG      0.076200
     42 H15         1.9790    0.7870    0.0330 hc        1 LIG      0.076200
     43 H16        -0.6240    0.5050   -0.5900 hn        1 LIG      0.314500
     44 H17        -1.6440   -1.2350    1.3830 h1        1 LIG      0.072200
     45 H18        -1.7720   -2.0370   -0.1650 h1        1 LIG      0.072200
     46 H19        -3.0350   -0.1210   -1.0520 h1        1 LIG      0.093700
     47 H20        -2.9070    0.6800    0.4950 h1        1 LIG      0.093700
     48 H21        -7.2430   -0.4750    1.4540 hc        1 LIG      0.094700
     49 H22        -7.3460   -1.5590   -1.3600 hc        1 LIG      0.059700
     50 H23        -8.5150   -1.8900   -0.1050 hc        1 LIG      0.059700
     51 H24        -6.8730   -2.4660    0.0570 hc        1 LIG      0.059700
     52 H25        -9.0880    1.3290    1.5940 hc        1 LIG      0.077700
     53 H26        -9.9110    0.2140    0.5300 hc        1 LIG      0.077700
     54 H27        -9.3100    3.1030   -0.0960 hc        1 LIG      0.044367
     55 H28       -10.8770    2.4680    0.3480 hc        1 LIG      0.044367
     56 H29       -10.1330    1.9880   -1.1590 hc        1 LIG      0.044367
@<TRIPOS>BOND
     1    1    7 1   
     2    3   10 1   
     3    3    2 2   
     4    4    9 1   
     5    4    3 1   
     6    5    6 1   
     7    5    8 1   
     8    5    4 1   
     9    7    5 1   
    10   11   10 1   
    11   11   12 1   
    12   13   12 1   
    13   13   14 2   
    14   15   16 1   
    15   15   13 1   
    16   17   16 1   
    17   18   19 1   
    18   18   17 1   
    19   19   20 2   
    20   21   23 1   
    21   21   19 1   
    22   22   21 1   
    23   23   24 2   
    24   25   23 1   
    25   26   25 1   
    26    1   27 1   
    27    4   28 1   
    28    6   29 1   
    29    6   30 1   
    30    6   31 1   
    31    7   32 1   
    32    7   33 1   
    33    8   34 1   
    34    8   35 1   
    35    8   36 1   
    36    9   37 1   
    37   10   38 1   
    38   11   39 1   
    39   11   40 1   
    40   12   41 1   
    41   12   42 1   
    42   15   43 1   
    43   16   44 1   
    44   16   45 1   
    45   17   46 1   
    46   17   47 1   
    47   21   48 1   
    48   22   49 1   
    49   22   50 1   
    50   22   51 1   
    51   25   52 1   
    52   25   53 1   
    53   26   54 1   
    54   26   55 1   
    55   26   56 1   
@<TRIPOS>SUBSTRUCTURE
     1 LIG         1 TEMP              0 ****  ****    0 ROOT
