@<TRIPOS>MOLECULE
DPV
   61    60     1     0     0
SMALL
bcc


@<TRIPOS>ATOM
      1 N          -7.1460    1.6450   -0.0610 N.4       1 LIG     -0.580800
      2 P          -3.7730   -1.2090   -0.0210 P.5       1 LIG      1.435800
      3 C          -1.1030   -1.1470   -0.0930 C.3       1 LIG      0.163400
      4 C1          0.0510   -0.1690    0.1400 C.3       1 LIG     -0.081400
      5 C2          1.3820   -0.8830   -0.1020 C.3       1 LIG     -0.080400
      6 C3         -6.3170   -0.5870    0.5120 C.3       1 LIG      0.201400
      7 C4         -7.1560    0.6050    0.9760 C.3       1 LIG      0.090800
      8 C5         -7.5890    1.0680   -1.3370 C.3       1 LIG      0.078433
      9 C6         -8.0540    2.7330    0.3270 C.3       1 LIG      0.078433
     10 C7         -5.7830    2.1750   -0.2110 C.3       1 LIG      0.078433
     11 C8          2.5350    0.0940    0.1310 C.3       1 LIG     -0.077400
     12 C9          3.8660   -0.6200   -0.1120 C.3       1 LIG     -0.079400
     13 C10         5.0200    0.3580    0.1210 C.3       1 LIG     -0.078400
     14 C11         6.3510   -0.3560   -0.1210 C.3       1 LIG     -0.079400
     15 C12         7.5040    0.6220    0.1120 C.3       1 LIG     -0.078400
     16 O          -3.9880   -1.6120   -1.4970 O.3       1 LIG     -0.820000
     17 C13         8.8350   -0.0930   -0.1310 C.3       1 LIG     -0.079400
     18 C14         9.9890    0.8850    0.1020 C.3       1 LIG     -0.079400
     19 C15        11.3200    0.1710   -0.1400 C.3       1 LIG     -0.080400
     20 C16        12.4730    1.1490    0.0930 C.3       1 LIG     -0.092100
     21 O1         -3.8060   -2.4720    0.8680 O.3       1 LIG     -0.820000
     22 O2         -2.3460   -0.4800    0.1340 O.2       1 LIG     -0.575200
     23 O3         -4.9430   -0.2010    0.4350 O.2       1 LIG     -0.572200
     24 H          -1.0130   -1.9720    0.5820 H         1 LIG      0.039200
     25 H1         -1.0690   -1.5050   -1.1010 H         1 LIG      0.039200
     26 H2          0.0170    0.1890    1.1480 H         1 LIG      0.043200
     27 H3         -0.0390    0.6560   -0.5360 H         1 LIG      0.043200
     28 H4          1.4160   -1.2410   -1.1100 H         1 LIG      0.041200
     29 H5          1.4720   -1.7080    0.5740 H         1 LIG      0.041200
     30 H6         -6.6530   -0.9050   -0.4530 H         1 LIG      0.053200
     31 H7         -6.4230   -1.3910    1.2100 H         1 LIG      0.053200
     32 H8         -8.1620    0.2860    1.1510 H         1 LIG      0.078700
     33 H9         -6.7440    1.0000    1.8810 H         1 LIG      0.078700
     34 H10        -8.5810    0.6820   -1.2290 H         1 LIG      0.099922
     35 H11        -6.9270    0.2760   -1.6190 H         1 LIG      0.099922
     36 H12        -7.5820    1.8250   -2.0930 H         1 LIG      0.099922
     37 H13        -9.0460    2.3480    0.4360 H         1 LIG      0.099922
     38 H14        -8.0470    3.4900   -0.4290 H         1 LIG      0.099922
     39 H15        -7.7300    3.1530    1.2560 H         1 LIG      0.099922
     40 H16        -5.1210    1.3830   -0.4940 H         1 LIG      0.099922
     41 H17        -5.4600    2.5950    0.7180 H         1 LIG      0.099922
     42 H18        -5.7760    2.9320   -0.9670 H         1 LIG      0.099922
     43 H19         2.5010    0.4520    1.1390 H         1 LIG      0.037200
     44 H20         2.4450    0.9190   -0.5440 H         1 LIG      0.037200
     45 H21         3.9000   -0.9780   -1.1200 H         1 LIG      0.040200
     46 H22         3.9560   -1.4450    0.5630 H         1 LIG      0.040200
     47 H23         4.9860    0.7160    1.1290 H         1 LIG      0.038200
     48 H24         4.9300    1.1830   -0.5550 H         1 LIG      0.038200
     49 H25         6.3850   -0.7140   -1.1290 H         1 LIG      0.039700
     50 H26         6.4410   -1.1810    0.5540 H         1 LIG      0.039700
     51 H27         7.4700    0.9800    1.1200 H         1 LIG      0.038700
     52 H28         7.4140    1.4480   -0.5630 H         1 LIG      0.038700
     53 H29         8.8690   -0.4510   -1.1390 H         1 LIG      0.039200
     54 H30         8.9250   -0.9180    0.5440 H         1 LIG      0.039200
     55 H31         9.9550    1.2430    1.1100 H         1 LIG      0.039200
     56 H32         9.8990    1.7100   -0.5740 H         1 LIG      0.039200
     57 H33        11.3540   -0.1870   -1.1480 H         1 LIG      0.038200
     58 H34        11.4100   -0.6540    0.5350 H         1 LIG      0.038200
     59 H35        12.3830    1.9740   -0.5820 H         1 LIG      0.032033
     60 H36        13.4040    0.6500   -0.0760 H         1 LIG      0.032033
     61 H37        12.4390    1.5070    1.1010 H         1 LIG      0.032033
@<TRIPOS>BOND
     1    1    7 1   
     2    1    8 1   
     3    1    9 1   
     4    1   10 1   
     5    2   16 1   
     6    2   21 1   
     7    2   22 1   
     8    2   23 1   
     9    3    4 1   
    10    3   22 1   
    11    4    5 1   
    12    5   11 1   
    13    6    7 1   
    14    6   23 1   
    15   11   12 1   
    16   12   13 1   
    17   13   14 1   
    18   14   15 1   
    19   15   17 1   
    20   17   18 1   
    21   18   19 1   
    22   19   20 1   
    23    3   24 1   
    24    3   25 1   
    25    4   26 1   
    26    4   27 1   
    27    5   28 1   
    28    5   29 1   
    29    6   30 1   
    30    6   31 1   
    31    7   32 1   
    32    7   33 1   
    33    8   34 1   
    34    8   35 1   
    35    8   36 1   
    36    9   37 1   
    37    9   38 1   
    38    9   39 1   
    39   10   40 1   
    40   10   41 1   
    41   10   42 1   
    42   11   43 1   
    43   11   44 1   
    44   12   45 1   
    45   12   46 1   
    46   13   47 1   
    47   13   48 1   
    48   14   49 1   
    49   14   50 1   
    50   15   51 1   
    51   15   52 1   
    52   17   53 1   
    53   17   54 1   
    54   18   55 1   
    55   18   56 1   
    56   19   57 1   
    57   19   58 1   
    58   20   59 1   
    59   20   60 1   
    60   20   61 1   
@<TRIPOS>SUBSTRUCTURE
     1 LIG         1 TEMP              0 ****  ****    0 ROOT
