@<TRIPOS>MOLECULE
I3C
   18    18     1     0     0
SMALL
bcc


@<TRIPOS>ATOM
      1 I           3.0150    1.9370    0.0230 i         1 LIG     -0.217900
      2 I1         -3.0140    1.9380   -0.0220 i         1 LIG     -0.217900
      3 I2         -0.0000   -3.3060    0.0010 i         1 LIG     -0.170900
      4 O           3.0100   -1.5490    1.0670 o         1 LIG     -0.817300
      5 O1          3.0750   -1.5830   -1.1510 o         1 LIG     -0.817300
      6 C          -2.4870   -1.2470   -0.0180 c         1 LIG      0.909200
      7 N           0.0000    2.9770   -0.0010 nh        1 LIG     -0.820200
      8 C1          1.2070   -0.5120    0.0090 ca        1 LIG     -0.002600
      9 C2          1.2030    0.8860    0.0090 ca        1 LIG     -0.021100
     10 C3          0.0000    1.5780   -0.0010 ca        1 LIG      0.156600
     11 C4         -1.2030    0.8860   -0.0090 ca        1 LIG     -0.021100
     12 C5         -1.2070   -0.5120   -0.0090 ca        1 LIG     -0.002600
     13 C6         -0.0000   -1.2110    0.0000 ca        1 LIG      0.025900
     14 C7          2.4870   -1.2470    0.0140 c         1 LIG      0.909200
     15 O2         -3.0790   -1.5820    1.1450 o         1 LIG     -0.817300
     16 O3         -3.0060   -1.5490   -1.0740 o         1 LIG     -0.817300
     17 H           0.8530    3.4690    0.0050 hn        1 LIG      0.371800
     18 H1         -0.8530    3.4690   -0.0070 hn        1 LIG      0.371800
@<TRIPOS>BOND
     1    1    9 1   
     2    2   11 1   
     3    3   13 1   
     4    4   14 1   
     5    5   14 1   
     6    6   12 1   
     7    6   15 1   
     8    6   16 1   
     9    7   10 1   
    10    8    9 ar  
    11    8   13 ar  
    12    8   14 1   
    13    9   10 ar  
    14   10   11 ar  
    15   11   12 ar  
    16   12   13 ar  
    17    7   17 1   
    18    7   18 1   
@<TRIPOS>SUBSTRUCTURE
     1 LIG         1 TEMP              0 ****  ****    0 ROOT
