@<TRIPOS>MOLECULE
3QZ
   54    57     1     0     0
SMALL
bcc


@<TRIPOS>ATOM
      1 C           4.8300    1.9830    0.1280 C.3       1 LIG     -0.209100
      2 C1         -1.9390    0.6930    1.8630 C.3       1 LIG     -0.086100
      3 C2          1.9530    0.3670    1.3990 C.3       1 LIG     -0.095100
      4 O           4.8320   -0.0530    1.3130 O.3       1 LIG     -0.524100
      5 O1         -6.0530    0.3130   -1.0190 O.3       1 LIG     -0.535100
      6 O2          3.6210    0.3560   -1.9020 O.h       1 LIG     -0.584800
      7 C3         -4.3070   -0.9120   -0.0450 C.e       1 LIG     -0.264200
      8 C4         -2.3170   -2.1580    0.6280 C.3       1 LIG     -0.054200
      9 C5         -4.4660    1.6050    0.2150 C.3       1 LIG     -0.182400
     10 C6         -0.9990   -2.2140   -0.1470 C.3       1 LIG     -0.072400
     11 C7         -0.1090    1.5300   -0.1800 C.3       1 LIG     -0.072400
     12 C8          2.0960   -2.1770   -0.0940 C.3       1 LIG     -0.071400
     13 C9         -2.9710    1.6330   -0.1710 C.3       1 LIG     -0.070400
     14 C10         1.3150    1.4110   -0.7730 C.3       1 LIG     -0.071400
     15 C11         3.5390   -1.6350   -0.4840 C.3       1 LIG     -0.069400
     16 C12         4.3930    0.5620    0.3710 C.        1 LIG      0.555100
     17 C13        -5.0410    0.3210   -0.3500 C.        1 LIG      0.569300
     18 C14        -3.0210   -0.8540    0.2990 C.2       1 LIG     -0.028400
     19 C15        -0.1710   -0.9670    0.1750 C.3       1 LIG     -0.050700
     20 C16        -0.9150    0.2470   -0.3590 C.3       1 LIG     -0.048700
     21 C17         1.1660   -1.0430   -0.5400 C.3       1 LIG     -0.060700
     22 C18        -2.2440    0.4240    0.3880 C.3       1 LIG     -0.014800
     23 C19         1.9800    0.2130   -0.1230 C.3       1 LIG     -0.069000
     24 C20         3.4080   -0.0940   -0.5620 C.3       1 LIG      0.056800
     25 H           5.5260    2.2770    0.8860 H         1 LIG      0.068033
     26 H1          3.9770    2.6280    0.1580 H         1 LIG      0.068033
     27 H2          5.2970    2.0530   -0.8320 H         1 LIG      0.068033
     28 H3         -2.8560    0.8190    2.4000 H         1 LIG      0.041033
     29 H4         -1.3500    1.5820    1.9490 H         1 LIG      0.041033
     30 H5         -1.3970   -0.1340    2.2720 H         1 LIG      0.041033
     31 H6          0.9550    0.5830    1.7180 H         1 LIG      0.045700
     32 H7          2.6010    1.1680    1.6880 H         1 LIG      0.045700
     33 H8          2.2850   -0.5420    1.8550 H         1 LIG      0.045700
     34 H9          3.5360    1.3220   -1.9360 H         1 LIG      0.401000
     35 H10        -4.7870   -1.8240   -0.0970 H         1 LIG      0.149000
     36 H11        -2.1190   -2.2050    1.6790 H         1 LIG      0.056700
     37 H12        -2.9370   -2.9860    0.3530 H         1 LIG      0.056700
     38 H13        -4.9710    2.4500   -0.2040 H         1 LIG      0.072200
     39 H14        -4.5890    1.6460    1.2770 H         1 LIG      0.072200
     40 H15        -1.2030   -2.2470   -1.1970 H         1 LIG      0.049200
     41 H16        -0.4530   -3.0900    0.1350 H         1 LIG      0.049200
     42 H17        -0.0300    1.7450    0.8650 H         1 LIG      0.045200
     43 H18        -0.6180    2.3140   -0.7010 H         1 LIG      0.045200
     44 H19         2.0200   -2.3440    0.9600 H         1 LIG      0.047700
     45 H20         1.8620   -3.1160   -0.5500 H         1 LIG      0.047700
     46 H21        -2.5250    2.5230    0.2220 H         1 LIG      0.049700
     47 H22        -2.8930    1.6150   -1.2380 H         1 LIG      0.049700
     48 H23         1.8740    2.2990   -0.5620 H         1 LIG      0.041700
     49 H24         1.2720    1.2880   -1.8350 H         1 LIG      0.041700
     50 H25         3.8420   -2.0310   -1.4310 H         1 LIG      0.071200
     51 H26         4.2760   -1.9300    0.2330 H         1 LIG      0.071200
     52 H27        -0.0180   -0.8990    1.2320 H         1 LIG      0.057700
     53 H28        -1.0810    0.0750   -1.4020 H         1 LIG      0.053700
     54 H29         0.9150   -1.1620   -1.5730 H         1 LIG      0.060700
@<TRIPOS>BOND
     1    2   22 1   
     2    3   23 1   
     3    4   16 2   
     4    7   18 2   
     5    8   10 1   
     6    9   13 1   
     7    9   17 1   
     8   11   20 1   
     9   11   14 1   
    10   12   15 1   
    11   13   22 1   
    12   14   23 1   
    13   16    1 1   
    14   16   24 1   
    15   17    5 2   
    16   17    7 1   
    17   18    8 1   
    18   19   10 1   
    19   19   21 1   
    20   20   19 1   
    21   21   12 1   
    22   22   18 1   
    23   22   20 1   
    24   23   21 1   
    25   23   24 1   
    26   24    6 1   
    27   24   15 1   
    28    1   25 1   
    29    1   26 1   
    30    1   27 1   
    31    2   28 1   
    32    2   29 1   
    33    2   30 1   
    34    3   31 1   
    35    3   32 1   
    36    3   33 1   
    37    6   34 1   
    38    7   35 1   
    39    8   36 1   
    40    8   37 1   
    41    9   38 1   
    42    9   39 1   
    43   10   40 1   
    44   10   41 1   
    45   11   42 1   
    46   11   43 1   
    47   12   44 1   
    48   12   45 1   
    49   13   46 1   
    50   13   47 1   
    51   14   48 1   
    52   14   49 1   
    53   15   50 1   
    54   15   51 1   
    55   19   52 1   
    56   20   53 1   
    57   21   54 1   
@<TRIPOS>SUBSTRUCTURE
     1 LIG         1 TEMP              0 ****  ****    0 ROOT
