@<TRIPOS>MOLECULE
SGM
   14    13     1     0     0
SMALL
bcc


@<TRIPOS>ATOM
      1 C           0.7450   -0.7720    0.3570 c3        1 LIG     -0.032300
      2 C1         -0.4490    0.0010   -0.2070 c3        1 LIG      0.088100
      3 O          -0.4080    1.3500    0.2600 oh        1 LIG     -0.599800
      4 C2         -1.7490   -0.6600    0.2560 c3        1 LIG      0.101400
      5 O1         -2.8610   -0.0110   -0.3640 oh        1 LIG     -0.591800
      6 S           2.2860    0.0110   -0.1920 sh        1 LIG     -0.361900
      7 H           0.7140   -1.7820    0.0060 h1        1 LIG      0.078700
      8 H1          0.7020   -0.7640    1.4260 h1        1 LIG      0.078700
      9 H2         -0.4060   -0.0070   -1.2760 h1        1 LIG      0.108700
     10 H3         -0.4470    1.3580    1.2290 ho        1 LIG      0.401000
     11 H4         -1.8340   -0.5740    1.3190 h1        1 LIG      0.050200
     12 H5         -1.7410   -1.6940   -0.0190 h1        1 LIG      0.050200
     13 H6         -2.8690    0.9260   -0.1150 ho        1 LIG      0.412000
     14 H7          2.3410    0.0010   -1.5510 hs        1 LIG      0.216800
@<TRIPOS>BOND
     1    1    2 1   
     2    1    6 1   
     3    2    3 1   
     4    2    4 1   
     5    4    5 1   
     6    1    7 1   
     7    1    8 1   
     8    2    9 1   
     9    3   10 1   
    10    4   11 1   
    11    4   12 1   
    12    5   13 1   
    13    6   14 1   
@<TRIPOS>SUBSTRUCTURE
     1 LIG         1 TEMP              0 ****  ****    0 ROOT
