@<TRIPOS>MOLECULE
H35
   25    27     1     0     0
SMALL
bcc


@<TRIPOS>ATOM
      1 C           5.7000    5.1940    2.2520 C.c       1 LIG     -0.233300
      2 C1          6.9290    5.2260    1.5510 C.c       1 LIG     -0.261300
      3 C2          6.6910    4.6290    0.3350 C.d       1 LIG      0.244600
      4 O           5.3940    4.2330    0.2440 O.2       1 LIG     -0.376800
      5 C3          4.8290    4.5880    1.4120 C.d       1 LIG      0.222000
      6 C4          3.3730    4.2460    1.5440 C.3       1 LIG      0.163500
      7 N           3.1390    2.8370    1.4180 N.h       1 LIG     -0.827900
      8 C5          1.8570    2.2660    1.4630 C.a       1 LIG      0.678200
      9 N1          0.7590    3.0380    1.6280 N.b       1 LIG     -0.751000
     10 C6         -0.4430    2.4150    1.6570 C.a       1 LIG      0.645900
     11 N2         -0.7170    1.0980    1.5430 N.b       1 LIG     -0.653000
     12 C7          0.4010    0.3500    1.3790 C.a       1 LIG      0.571300
     13 C8          1.6740    0.9030    1.3380 C.a       1 LIG     -0.361800
     14 N3          2.5090   -0.1640    1.1630 N.a       1 LIG     -0.261300
     15 C9          1.7290   -1.2890    1.1080 C.c       1 LIG      0.435700
     16 N4          0.4490   -1.0130    1.2360 N.d       1 LIG     -0.625700
     17 H           5.5090    5.5550    3.2000 H         1 LIG      0.167000
     18 H1          7.8230    5.6180    1.8850 H         1 LIG      0.165000
     19 H2          7.3990    4.5000   -0.4050 H         1 LIG      0.054100
     20 H3          2.8270    4.7570    0.7780 H         1 LIG      0.076200
     21 H4          3.0490    4.5490    2.5180 H         1 LIG      0.076200
     22 H5          3.9130    2.2420    1.2940 H         1 LIG      0.410800
     23 H6         -1.2610    3.0310    1.7840 H         1 LIG      0.056100
     24 H7          3.4900   -0.1310    1.0900 H         1 LIG      0.311700
     25 H8          2.1020   -2.2430    0.9810 H         1 LIG      0.074800
@<TRIPOS>BOND
     1    1    2 ar  
     2    1    5 ar  
     3    2    3 ar  
     4    3    4 ar  
     5    4    5 ar  
     6    5    6 1   
     7    6    7 1   
     8    7    8 1   
     9    8    9 ar  
    10    8   13 ar  
    11    9   10 ar  
    12   10   11 ar  
    13   11   12 ar  
    14   12   13 ar  
    15   12   16 1   
    16   13   14 1   
    17   14   15 1   
    18   15   16 2   
    19    1   17 1   
    20    2   18 1   
    21    3   19 1   
    22    6   20 1   
    23    6   21 1   
    24    7   22 1   
    25   10   23 1   
    26   14   24 1   
    27   15   25 1   
@<TRIPOS>SUBSTRUCTURE
     1 LIG         1 TEMP              0 ****  ****    0 ROOT
