@<TRIPOS>MOLECULE
Y27
   40    41     1     0     0
SMALL
bcc


@<TRIPOS>ATOM
      1 O          -1.5340    0.1140   -1.2150 O.3       1 LIG     -0.578100
      2 C          -0.4200    0.3540   -0.8010 C.        1 LIG      0.666100
      3 C1         -0.1900    0.5510    0.6750 C.3       1 LIG     -0.136700
      4 C2         -1.5170    0.3960    1.4220 C.3       1 LIG     -0.078900
      5 C3         -1.2840    0.5960    2.9210 C.3       1 LIG     -0.082900
      6 C4         -0.2900   -0.4500    3.4260 C.3       1 LIG     -0.103700
      7 C5          1.0360   -0.2960    2.6790 C.3       1 LIG     -0.082900
      8 C6          0.8030   -0.4950    1.1800 C.3       1 LIG     -0.078900
      9 C7         -0.0570   -0.2500    4.9250 C.3       1 LIG      0.130500
     10 C8          0.9370   -1.2970    5.4310 C.3       1 LIG     -0.138100
     11 N           0.4840    1.0930    5.1620 N.4       1 LIG     -0.843600
     12 N1          0.6130    0.4450   -1.6610 N.        1 LIG     -0.460100
     13 C9          0.4240    0.1510   -3.0120 C.a       1 LIG      0.087600
     14 C10        -0.4920   -0.8200   -3.4110 C.a       1 LIG     -0.284300
     15 C11        -0.6520   -1.0770   -4.7570 C.a       1 LIG      0.421200
     16 N2          0.0550   -0.4250   -5.6600 N.b       1 LIG     -0.666000
     17 C12         0.9360    0.4960   -5.3220 C.a       1 LIG      0.421200
     18 C13         1.1520    0.8160   -3.9970 C.a       1 LIG     -0.284300
     19 H           0.2050    1.5300    0.8470 H         1 LIG      0.056700
     20 H1         -1.9110   -0.5840    1.2500 H         1 LIG      0.079700
     21 H2         -2.2130    1.1270    1.0680 H         1 LIG      0.079700
     22 H3         -2.2110    0.4880    3.4440 H         1 LIG      0.041450
     23 H4         -0.8890    1.5760    3.0930 H         1 LIG      0.041450
     24 H5         -0.6850   -1.4290    3.2540 H         1 LIG      0.114700
     25 H6          1.7320   -1.0280    3.0320 H         1 LIG      0.041450
     26 H7          1.4310    0.6830    2.8520 H         1 LIG      0.041450
     27 H8          1.7310   -0.3880    0.6580 H         1 LIG      0.079700
     28 H9          0.4080   -1.4740    1.0080 H         1 LIG      0.079700
     29 H10        -0.9850   -0.3570    5.4470 H         1 LIG      0.109700
     30 H11         1.8650   -1.1900    4.9090 H         1 LIG      0.082367
     31 H12         0.5420   -2.2760    5.2590 H         1 LIG      0.082367
     32 H13         1.0990   -1.1570    6.4790 H         1 LIG      0.082367
     33 H14         1.3690    1.1960    4.6650 H         1 LIG      0.458467
     34 H15         0.6380    1.2260    6.1610 H         1 LIG      0.458467
     35 H16        -0.1790    1.7910    4.8250 H         1 LIG      0.458467
     36 H17         1.5010    0.7190   -1.3360 H         1 LIG      0.319500
     37 H18        -1.0430   -1.3390   -2.7100 H         1 LIG      0.159500
     38 H19        -1.3340   -1.7890   -5.0620 H         1 LIG      0.032100
     39 H20         1.4710    0.9840   -6.0580 H         1 LIG      0.032100
     40 H21         1.8430    1.5380   -3.7390 H         1 LIG      0.159500
@<TRIPOS>BOND
     1    1    2 2   
     2    2    3 1   
     3    2   12 1   
     4    3    4 1   
     5    3    8 1   
     6    4    5 1   
     7    5    6 1   
     8    6    7 1   
     9    6    9 1   
    10    7    8 1   
    11    9   10 1   
    12    9   11 1   
    13   12   13 1   
    14   13   14 ar  
    15   13   18 ar  
    16   14   15 ar  
    17   15   16 ar  
    18   16   17 ar  
    19   17   18 ar  
    20    3   19 1   
    21    4   20 1   
    22    4   21 1   
    23    5   22 1   
    24    5   23 1   
    25    6   24 1   
    26    7   25 1   
    27    7   26 1   
    28    8   27 1   
    29    8   28 1   
    30    9   29 1   
    31   10   30 1   
    32   10   31 1   
    33   10   32 1   
    34   11   33 1   
    35   11   34 1   
    36   11   35 1   
    37   12   36 1   
    38   14   37 1   
    39   15   38 1   
    40   17   39 1   
    41   18   40 1   
@<TRIPOS>SUBSTRUCTURE
     1 LIG         1 TEMP              0 ****  ****    0 ROOT
