@<TRIPOS>MOLECULE
DKA
   31    30     1     0     0
SMALL
bcc


@<TRIPOS>ATOM
      1 C          -4.5290   -0.0710    0.0010 c         1 LIG      0.907600
      2 O          -4.4790   -1.2780    0.0010 o         1 LIG     -0.853800
      3 C1         -3.2570    0.7360    0.0020 c3        1 LIG     -0.193400
      4 C2         -2.0530   -0.2090    0.0010 c3        1 LIG     -0.065400
      5 C3         -0.7610    0.6100    0.0010 c3        1 LIG     -0.078400
      6 C4          0.4420   -0.3350    0.0000 c3        1 LIG     -0.078400
      7 C5          1.7340    0.4850    0.0010 c3        1 LIG     -0.078400
      8 C6          2.9370   -0.4610   -0.0000 c3        1 LIG     -0.079400
      9 C7          4.2290    0.3590    0.0000 c3        1 LIG     -0.078400
     10 C8          5.4330   -0.5860   -0.0010 c3        1 LIG     -0.080400
     11 C9          6.7250    0.2330   -0.0010 c3        1 LIG     -0.091100
     12 O1         -5.7190    0.5510   -0.0030 o         1 LIG     -0.853800
     13 H          -3.2260    1.3520    0.8760 hc        1 LIG      0.018700
     14 H1         -3.2260    1.3540   -0.8710 hc        1 LIG      0.018700
     15 H2         -2.0840   -0.8260   -0.8730 hc        1 LIG      0.043700
     16 H3         -2.0840   -0.8260    0.8750 hc        1 LIG      0.043700
     17 H4         -0.7300    1.2260    0.8750 hc        1 LIG      0.025700
     18 H5         -0.7300    1.2270   -0.8720 hc        1 LIG      0.025700
     19 H6          0.4110   -0.9510   -0.8740 hc        1 LIG      0.036700
     20 H7          0.4110   -0.9530    0.8730 hc        1 LIG      0.036700
     21 H8          1.7650    1.1010    0.8750 hc        1 LIG      0.034200
     22 H9          1.7650    1.1030   -0.8720 hc        1 LIG      0.034200
     23 H10         2.9050   -1.0770   -0.8740 hc        1 LIG      0.037200
     24 H11         2.9060   -1.0790    0.8730 hc        1 LIG      0.037200
     25 H12         4.2600    0.9760    0.8740 hc        1 LIG      0.036700
     26 H13         4.2600    0.9770   -0.8730 hc        1 LIG      0.036700
     27 H14         5.4020   -1.2020   -0.8750 hc        1 LIG      0.037200
     28 H15         5.4020   -1.2030    0.8730 hc        1 LIG      0.037200
     29 H16         6.7560    0.8500   -0.8740 hc        1 LIG      0.028033
     30 H17         7.5660   -0.4280   -0.0020 hc        1 LIG      0.028033
     31 H18         6.7560    0.8500    0.8730 hc        1 LIG      0.028033
@<TRIPOS>BOND
     1    1    2 1   
     2    1    3 1   
     3    1   12 1   
     4    3    4 1   
     5    4    5 1   
     6    5    6 1   
     7    6    7 1   
     8    7    8 1   
     9    8    9 1   
    10    9   10 1   
    11   10   11 1   
    12    3   13 1   
    13    3   14 1   
    14    4   15 1   
    15    4   16 1   
    16    5   17 1   
    17    5   18 1   
    18    6   19 1   
    19    6   20 1   
    20    7   21 1   
    21    7   22 1   
    22    8   23 1   
    23    8   24 1   
    24    9   25 1   
    25    9   26 1   
    26   10   27 1   
    27   10   28 1   
    28   11   29 1   
    29   11   30 1   
    30   11   31 1   
@<TRIPOS>SUBSTRUCTURE
     1 LIG         1 TEMP              0 ****  ****    0 ROOT
