@<TRIPOS>MOLECULE
1FO
   34    35     1     0     0
SMALL
bcc


@<TRIPOS>ATOM
      1 O          -3.9980   -1.7070    0.2690 O.3       1 LIG     -0.770300
      2 O1         -6.7720    2.1610   -0.8400 O.3       1 LIG     -0.875300
      3 O2          3.8530   -2.6230    0.0790 O.3       1 LIG     -0.567100
      4 O3         -8.3560    0.8330   -0.0300 O.3       1 LIG     -0.875300
      5 O4         -6.3250   -0.9630    0.7800 O.3       1 LIG     -0.668100
      6 F           5.5820    2.9370    0.8620 F.        1 LIG     -0.149900
      7 C          -2.3040   -0.2080   -0.0460 C.e       1 LIG     -0.111200
      8 C1         -1.3520   -1.1660    0.0940 C.f       1 LIG     -0.220200
      9 C2         -4.7030    0.4860   -0.0960 C.f       1 LIG     -0.516200
     10 C3          7.0320    0.0150   -0.7380 C.a       1 LIG     -0.123000
     11 C4          6.8980    1.2930   -0.2240 C.a       1 LIG     -0.169000
     12 C5          5.9790   -0.8730   -0.6730 C.a       1 LIG     -0.110000
     13 C6          1.8630    0.3830   -0.2740 C.d       1 LIG     -0.142300
     14 C7          4.6450    0.8060    0.4390 C.a       1 LIG     -0.135000
     15 C8          1.0820   -1.6920    0.1140 C.c       1 LIG     -0.184000
     16 N           0.5210    0.4390   -0.2440 N.a       1 LIG     -0.162100
     17 C9         -3.6730   -0.5510    0.0550 C.e       1 LIG      0.547500
     18 C10        -7.0630    1.1270   -0.2740 C.        1 LIG      0.837600
     19 C11        -6.0000    0.1910    0.1480 C.        1 LIG      0.518300
     20 C12         3.6410   -1.4290   -0.0150 C.        1 LIG      0.622300
     21 C13         5.7060    1.6880    0.3630 C.a       1 LIG      0.106900
     22 C14         0.0180   -0.8230   -0.0070 C.d       1 LIG     -0.005100
     23 C15         4.7730   -0.4810   -0.0870 C.a       1 LIG     -0.113600
     24 C16         2.2570   -0.9270   -0.0560 C.c       1 LIG     -0.260600
     25 H          -2.0290    0.7700   -0.2260 H         1 LIG      0.084000
     26 H1         -1.6270   -2.1440    0.2740 H         1 LIG      0.161000
     27 H2         -4.4370    1.4390   -0.3880 H         1 LIG      0.086000
     28 H3          7.9230   -0.2740   -1.1710 H         1 LIG      0.127000
     29 H4          7.6880    1.9540   -0.2780 H         1 LIG      0.135000
     30 H5          6.0820   -1.8250   -1.0570 H         1 LIG      0.149000
     31 H6          2.4950    1.1830   -0.4330 H         1 LIG      0.154000
     32 H7          3.7600    1.0980    0.8830 H         1 LIG      0.166000
     33 H8          1.0300   -2.7070    0.2940 H         1 LIG      0.160000
     34 H9         -0.0180    1.2530   -0.3710 H         1 LIG      0.305700
@<TRIPOS>BOND
     1    1   17 1   
     2    2   18 1   
     3    5   19 2   
     4    7    8 2   
     5    8   22 1   
     6    9   17 2   
     7   10   11 ar  
     8   11   21 ar  
     9   12   10 ar  
    10   13   24 ar  
    11   14   21 ar  
    12   15   24 ar  
    13   16   13 ar  
    14   17    7 1   
    15   18    4 1   
    16   18   19 1   
    17   19    9 1   
    18   20    3 2   
    19   20   23 1   
    20   21    6 1   
    21   22   15 ar  
    22   22   16 ar  
    23   23   12 ar  
    24   23   14 ar  
    25   24   20 1   
    26    7   25 1   
    27    8   26 1   
    28    9   27 1   
    29   10   28 1   
    30   11   29 1   
    31   12   30 1   
    32   13   31 1   
    33   14   32 1   
    34   15   33 1   
    35   16   34 1   
@<TRIPOS>SUBSTRUCTURE
     1 LIG         1 TEMP              0 ****  ****    0 ROOT
