@<TRIPOS>MOLECULE
D3N
   41    44     1     0     0
SMALL
bcc


@<TRIPOS>ATOM
      1 O          -6.2950   -0.2780    0.1250 o         1 LIG     -0.932167
      2 P          -4.9900   -1.1540    0.4740 p5        1 LIG      1.333900
      3 O1         -4.7450   -2.1290   -0.6120 o         1 LIG     -0.932167
      4 O2         -3.7140   -0.1830    0.6210 os        1 LIG     -0.560200
      5 C          -3.1830    0.5740   -0.4680 c3        1 LIG      0.231400
      6 C1         -1.9790    1.3860    0.0140 c3        1 LIG      0.063100
      7 O3         -0.8910    0.5110    0.3820 os        1 LIG     -0.446600
      8 C2         -1.3900    2.2290   -1.1450 c3        1 LIG      0.165100
      9 O4         -2.0650    3.4830   -1.2580 oh        1 LIG     -0.680800
     10 C3          0.0760    2.4290   -0.6870 c3        1 LIG     -0.124400
     11 C4          0.3130    1.2940    0.3270 c3        1 LIG      0.314500
     12 N           1.4310    0.4570   -0.1150 n         1 LIG     -0.354000
     13 C5          1.2990   -0.3100   -1.2140 c         1 LIG      0.814500
     14 O5          0.2450   -0.2900   -1.8200 o         1 LIG     -0.617500
     15 N1          2.2930   -1.0980   -1.6670 n         1 LIG     -0.474100
     16 C6          3.5140   -1.1470   -0.9990 ca        1 LIG      0.130600
     17 C7          3.6850   -0.3560    0.1550 ca        1 LIG     -0.111000
     18 C8          2.6270    0.4630    0.6000 ca        1 LIG      0.129600
     19 C9          2.8040    1.2360    1.7240 ca        1 LIG     -0.195000
     20 C10         4.0170    1.2130    2.4110 ca        1 LIG     -0.073000
     21 C11         5.0550    0.4330    1.9960 ca        1 LIG     -0.201000
     22 C12         4.9090   -0.3800    0.8590 ca        1 LIG      0.032000
     23 C13         5.9470   -1.2020    0.3890 ca        1 LIG     -0.194000
     24 C14         5.7590   -1.9590   -0.7300 ca        1 LIG     -0.077000
     25 C15         4.5540   -1.9400   -1.4280 ca        1 LIG     -0.254000
     26 O6         -5.2270   -1.9420    1.8590 o         1 LIG     -0.932167
     27 H          -3.9350    1.2380   -0.8410 h1        1 LIG      0.001200
     28 H1         -2.8760   -0.0910   -1.2480 h1        1 LIG      0.001200
     29 H2         -2.3290    1.9840    0.8290 h1        1 LIG      0.075700
     30 H3         -1.4840    1.7680   -2.1060 h1        1 LIG      0.099700
     31 H4         -2.0160    3.9540   -0.4120 ho        1 LIG      0.506000
     32 H5          0.2020    3.3850   -0.2230 hc        1 LIG      0.061700
     33 H6          0.7680    2.4010   -1.5030 hc        1 LIG      0.061700
     34 H7          0.5520    1.6910    1.2920 h2        1 LIG      0.039700
     35 H8          2.1550   -1.6430   -2.4750 hn        1 LIG      0.338500
     36 H9          2.0350    1.8360    2.0610 ha        1 LIG      0.171000
     37 H10         4.1310    1.8000    3.2520 ha        1 LIG      0.120000
     38 H11         5.9470    0.4400    2.5160 ha        1 LIG      0.117000
     39 H12         6.8490   -1.2330    0.8890 ha        1 LIG      0.118000
     40 H13         6.5270   -2.5600   -1.0670 ha        1 LIG      0.111000
     41 H14         4.4400   -2.5240   -2.2720 ha        1 LIG      0.125000
@<TRIPOS>BOND
     1    2    1 1   
     2    2   26 1   
     3    3    2 1   
     4    4    2 1   
     5    5    4 1   
     6    6    7 1   
     7    6    5 1   
     8    8    6 1   
     9    9    8 1   
    10   10    8 1   
    11   10   11 1   
    12   11   12 1   
    13   11    7 1   
    14   12   13 1   
    15   12   18 1   
    16   13   15 1   
    17   14   13 2   
    18   15   16 1   
    19   16   25 ar  
    20   17   16 ar  
    21   17   22 ar  
    22   18   17 ar  
    23   19   18 ar  
    24   19   20 ar  
    25   20   21 ar  
    26   21   22 ar  
    27   22   23 ar  
    28   23   24 ar  
    29   25   24 ar  
    30    5   27 1   
    31    5   28 1   
    32    6   29 1   
    33    8   30 1   
    34    9   31 1   
    35   10   32 1   
    36   10   33 1   
    37   11   34 1   
    38   15   35 1   
    39   19   36 1   
    40   20   37 1   
    41   21   38 1   
    42   23   39 1   
    43   24   40 1   
    44   25   41 1   
@<TRIPOS>SUBSTRUCTURE
     1 LIG         1 TEMP              0 ****  ****    0 ROOT
