@<TRIPOS>MOLECULE
YJX
   37    41     1     0     0
SMALL
bcc


@<TRIPOS>ATOM
      1 C          -0.6930   -3.1990   -0.0990 C.a       1 LIG     -0.107000
      2 C1         -2.0200   -3.5970   -0.1200 C.a       1 LIG     -0.132000
      3 C2         -0.3630   -1.8580   -0.0710 C.a       1 LIG     -0.094000
      4 C3         -3.0340   -2.6600   -0.1130 C.a       1 LIG     -0.057000
      5 C4          3.8980   -0.7350    1.2910 C.a       1 LIG     -0.181300
      6 C5          5.1090   -0.8370    0.6670 C.a       1 LIG      0.362200
      7 C6          4.3870    0.3680   -1.1720 C.a       1 LIG      0.405200
      8 C7         -1.3700   -0.8980   -0.0650 C.a       1 LIG     -0.055800
      9 C8         -2.7230   -1.3040   -0.0850 C.a       1 LIG     -0.151600
     10 C9          2.8630   -0.0400    0.6490 C.a       1 LIG      0.088400
     11 C10         3.1270    0.5220   -0.6180 C.a       1 LIG     -0.205500
     12 C11         1.0390    0.9420   -0.0150 C.c       1 LIG      0.492100
     13 C12        -1.3880    0.5680   -0.0430 C.d       1 LIG      0.124400
     14 C13        -3.5350   -0.0750   -0.0690 C.        1 LIG      0.725100
     15 C14        -0.3390    1.4320   -0.0280 C.e       1 LIG     -0.209800
     16 C15        -0.6380    2.9140   -0.0250 C.3       1 LIG     -0.026200
     17 C16        -1.9600    3.1770    0.6980 C.3       1 LIG     -0.095400
     18 C17        -3.0960    2.4080    0.0130 C.3       1 LIG      0.105000
     19 N           5.3220   -0.2960   -0.5210 N.b       1 LIG     -0.653000
     20 N1          1.5890    0.2460    0.9590 N.d       1 LIG     -0.554100
     21 N2          1.9580    1.1380   -1.0160 N.a       1 LIG     -0.268300
     22 N3         -2.7180    0.9880   -0.0350 N.        1 LIG     -0.405000
     23 O          -4.7500   -0.0310   -0.0850 O.3       1 LIG     -0.584500
     24 H           0.0550   -3.9100   -0.1040 H         1 LIG      0.142000
     25 H1         -2.2520   -4.6020   -0.1410 H         1 LIG      0.142000
     26 H2          0.6280   -1.5690   -0.0550 H         1 LIG      0.154000
     27 H3         -4.0200   -2.9650   -0.1290 H         1 LIG      0.157000
     28 H4          3.7480   -1.1620    2.2190 H         1 LIG      0.158000
     29 H5          5.8750   -1.3480    1.1330 H         1 LIG      0.024100
     30 H6          4.5950    0.7740   -2.0980 H         1 LIG      0.024100
     31 H7         -0.7100    3.2640   -1.0340 H         1 LIG      0.062200
     32 H8          0.1500    3.4310    0.4820 H         1 LIG      0.062200
     33 H9         -2.1750    4.2250    0.6720 H         1 LIG      0.060200
     34 H10        -1.8760    2.8480    1.7130 H         1 LIG      0.060200
     35 H11        -3.2390    2.7800   -0.9800 H         1 LIG      0.058700
     36 H12        -4.0100    2.5320    0.5560 H         1 LIG      0.058700
     37 H13         1.8110    1.6260   -1.8580 H         1 LIG      0.312700
@<TRIPOS>BOND
     1    1    2 ar  
     2    1    3 ar  
     3    2    4 ar  
     4    3    8 ar  
     5    4    9 ar  
     6    5    6 ar  
     7    5   10 ar  
     8    6   19 ar  
     9    7   11 ar  
    10    7   19 ar  
    11    8    9 ar  
    12    8   13 1   
    13    9   14 1   
    14   10   11 ar  
    15   10   20 1   
    16   11   21 1   
    17   12   15 1   
    18   12   20 2   
    19   12   21 1   
    20   13   15 2   
    21   13   22 1   
    22   14   22 1   
    23   14   23 2   
    24   15   16 1   
    25   16   17 1   
    26   17   18 1   
    27   18   22 1   
    28    1   24 1   
    29    2   25 1   
    30    3   26 1   
    31    4   27 1   
    32    5   28 1   
    33    6   29 1   
    34    7   30 1   
    35   16   31 1   
    36   16   32 1   
    37   17   33 1   
    38   17   34 1   
    39   18   35 1   
    40   18   36 1   
    41   21   37 1   
@<TRIPOS>SUBSTRUCTURE
     1 LIG         1 TEMP              0 ****  ****    0 ROOT
