@<TRIPOS>MOLECULE
FFA
   49    52     1     0     0
SMALL
bcc


@<TRIPOS>ATOM
      1 C          -0.1090    1.0790    4.5470 C.3       1 LIG     -0.070400
      2 C1          0.0510    2.5540    4.2140 C.3       1 LIG     -0.182400
      3 C2          0.7770    2.7210    2.9060 C.        1 LIG      0.569300
      4 C3          0.5270    1.7270    1.8370 C.e       1 LIG     -0.264200
      5 C4         -0.2260    0.6360    2.0570 C.2       1 LIG     -0.028400
      6 C5         -0.8090    0.2580    3.4250 C.3       1 LIG     -0.015800
      7 C6         -0.5540   -1.2740    3.7010 C.3       1 LIG     -0.047700
      8 C7         -0.9760   -2.1840    2.5050 C.3       1 LIG     -0.048700
      9 C8         -0.2560   -1.7390    1.2260 C.3       1 LIG     -0.072400
     10 C9         -0.5560   -0.2810    0.9030 C.3       1 LIG     -0.054200
     11 C10        -1.1460   -1.7780    5.0460 C.3       1 LIG     -0.076400
     12 C11        -0.9110   -3.2790    5.2950 C.3       1 LIG     -0.059400
     13 C12        -0.6510   -3.6420    2.8510 C.3       1 LIG     -0.064700
     14 C13        -1.3900   -4.1320    4.1120 C.3       1 LIG     -0.087000
     15 C14        -0.9450   -4.7240    1.8170 C.3       1 LIG     -0.076400
     16 C15        -1.0020   -6.0300    2.6340 C.3       1 LIG     -0.117400
     17 C16        -0.9690   -5.6170    4.1210 C.3       1 LIG      0.145100
     18 C17        -2.9350   -4.0680    4.0110 C.3       1 LIG     -0.082100
     19 C18        -2.3150    0.6030    3.4190 C.3       1 LIG     -0.086100
     20 O           1.5050    3.6860    2.6860 O.3       1 LIG     -0.535100
     21 O1          0.3580   -5.7720    4.6150 O.h       1 LIG     -0.590800
     22 H           0.8630    0.6630    4.7140 H         1 LIG      0.050700
     23 H1         -0.7330    1.0200    5.4140 H         1 LIG      0.050700
     24 H2          0.6100    3.0320    4.9910 H         1 LIG      0.072200
     25 H3         -0.9190    2.9980    4.1320 H         1 LIG      0.072200
     26 H4          0.9400    1.8750    0.9030 H         1 LIG      0.148000
     27 H5          0.5080   -1.3570    3.8000 H         1 LIG      0.050700
     28 H6         -2.0280   -2.0980    2.3300 H         1 LIG      0.057700
     29 H7         -0.5820   -2.3510    0.4110 H         1 LIG      0.047700
     30 H8          0.7980   -1.8420    1.3780 H         1 LIG      0.047700
     31 H9          0.0250    0.0110    0.0530 H         1 LIG      0.055700
     32 H10        -1.6040   -0.1960    0.7040 H         1 LIG      0.055700
     33 H11        -2.2000   -1.5960    5.0410 H         1 LIG      0.043200
     34 H12        -0.6470   -1.2470    5.8290 H         1 LIG      0.043200
     35 H13        -1.4460   -3.5730    6.1740 H         1 LIG      0.047700
     36 H14         0.1400   -3.4370    5.4160 H         1 LIG      0.047700
     37 H15         0.4100   -3.5500    2.9540 H         1 LIG      0.041700
     38 H16        -0.1660   -4.7690    1.0850 H         1 LIG      0.045700
     39 H17        -1.8520   -4.5390    1.2800 H         1 LIG      0.045700
     40 H18        -0.1600   -6.6480    2.4030 H         1 LIG      0.053700
     41 H19        -1.8850   -6.5910    2.4070 H         1 LIG      0.053700
     42 H20        -1.6090   -6.2050    4.7460 H         1 LIG      0.080700
     43 H21        -3.2500   -3.0450    4.0030 H         1 LIG      0.037700
     44 H22        -3.3680   -4.5680    4.8520 H         1 LIG      0.037700
     45 H23        -3.2530   -4.5460    3.1080 H         1 LIG      0.037700
     46 H24        -2.4410    1.6480    3.2290 H         1 LIG      0.040700
     47 H25        -2.7400    0.3600    4.3700 H         1 LIG      0.040700
     48 H26        -2.8070    0.0400    2.6540 H         1 LIG      0.040700
     49 H27         0.9690   -5.2510    4.0710 H         1 LIG      0.398000
@<TRIPOS>BOND
     1    1    6 1   
     2    1    2 1   
     3    2    3 1   
     4    3    4 1   
     5    3   20 2   
     6    4    5 2   
     7    5    6 1   
     8    5   10 1   
     9    6    7 1   
    10    6   19 1   
    11    7   11 1   
    12    7    8 1   
    13    8   13 1   
    14    8    9 1   
    15    9   10 1   
    16   11   12 1   
    17   12   14 1   
    18   13   14 1   
    19   13   15 1   
    20   14   17 1   
    21   14   18 1   
    22   15   16 1   
    23   16   17 1   
    24   17   21 1   
    25    1   22 1   
    26    1   23 1   
    27    2   24 1   
    28    2   25 1   
    29    4   26 1   
    30    7   27 1   
    31    8   28 1   
    32    9   29 1   
    33    9   30 1   
    34   10   31 1   
    35   10   32 1   
    36   11   33 1   
    37   11   34 1   
    38   12   35 1   
    39   12   36 1   
    40   13   37 1   
    41   15   38 1   
    42   15   39 1   
    43   16   40 1   
    44   16   41 1   
    45   17   42 1   
    46   18   43 1   
    47   18   44 1   
    48   18   45 1   
    49   19   46 1   
    50   19   47 1   
    51   19   48 1   
    52   21   49 1   
@<TRIPOS>SUBSTRUCTURE
     1 LIG         1 TEMP              0 ****  ****    0 ROOT
