@<TRIPOS>MOLECULE
D15
   55    58     1     0     0
SMALL
bcc


@<TRIPOS>ATOM
      1 C          39.2070   26.2760  -39.0710 C.a       1 LIG     -0.125000
      2 C1         40.1920   27.2700  -39.1900 C.a       1 LIG      0.018400
      3 Cl         40.0550   28.8550  -38.5250 C.l       1 LIG     -0.053400
      4 C2         41.3690   27.0690  -39.8640 C.a       1 LIG     -0.105000
      5 C3         41.6370   25.8750  -40.4650 C.a       1 LIG     -0.113000
      6 C4         40.6900   24.8890  -40.3600 C.a       1 LIG     -0.137000
      7 C5         39.5080   25.0730  -39.6690 C.a       1 LIG     -0.129300
      8 C6         38.6200   23.8440  -39.6710 C.3       1 LIG     -0.089400
      9 C7         37.1810   24.2220  -39.9040 C.3       1 LIG     -0.103400
     10 C8         37.2250   24.4650  -41.4030 C.3       1 LIG      0.099800
     11 N          35.9750   24.9760  -41.9250 N.4       1 LIG     -0.837600
     12 C9         39.0250   22.8670  -38.5450 C.        1 LIG      0.665100
     13 O          39.6790   21.8700  -38.8890 O.3       1 LIG     -0.599100
     14 N1         38.7770   23.1550  -37.2610 N.        1 LIG     -0.441100
     15 C10        39.2550   22.3040  -36.3070 C.a       1 LIG     -0.009400
     16 C11        40.3240   21.3460  -36.4650 C.a       1 LIG     -0.037000
     17 C12        40.7670   20.4990  -35.4050 C.a       1 LIG     -0.183900
     18 C13        38.6760   22.4030  -35.0690 C.a       1 LIG     -0.121000
     19 C14        39.1230   21.5800  -34.0360 C.a       1 LIG     -0.123000
     20 C15        40.1350   20.6380  -34.1770 C.a       1 LIG     -0.054200
     21 N2         40.6690   19.7660  -33.3040 N.a       1 LIG      0.002900
     22 N3         41.5700   19.1190  -33.8580 N.c       1 LIG     -0.548100
     23 C16        41.7290   19.4950  -35.1150 C.d       1 LIG      0.410500
     24 N4         42.6110   18.8540  -35.8780 N.        1 LIG     -0.451400
     25 C17        43.1610   19.3750  -36.9720 C.        1 LIG      0.683700
     26 O1         43.0100   20.5410  -37.2890 O.3       1 LIG     -0.584100
     27 C18        44.0490   18.4620  -37.8690 C.a       1 LIG     -0.154600
     28 C19        44.7460   19.0010  -38.9550 C.a       1 LIG     -0.091000
     29 C20        45.5430   18.2020  -39.7780 C.a       1 LIG     -0.136000
     30 C21        45.6660   16.8310  -39.5470 C.a       1 LIG     -0.102000
     31 C22        44.9790   16.3190  -38.4630 C.a       1 LIG     -0.136000
     32 C23        44.1730   17.1090  -37.6450 C.a       1 LIG     -0.091000
     33 H          38.3190   26.4360  -38.5700 H         1 LIG      0.159000
     34 H1         42.0620   27.8320  -39.9170 H         1 LIG      0.167000
     35 H2         42.5180   25.7190  -40.9790 H         1 LIG      0.156000
     36 H3         40.8660   23.9780  -40.8130 H         1 LIG      0.140000
     37 H4         38.7790   23.2120  -40.5190 H         1 LIG      0.084700
     38 H5         36.9080   25.1050  -39.3640 H         1 LIG      0.091700
     39 H6         36.4620   23.4980  -39.5810 H         1 LIG      0.091700
     40 H7         37.4480   23.5400  -41.8930 H         1 LIG      0.114700
     41 H8         37.9770   25.2030  -41.5880 H         1 LIG      0.114700
     42 H9         35.2350   24.2930  -41.7640 H         1 LIG      0.461800
     43 H10        36.0690   25.1460  -42.9260 H         1 LIG      0.461800
     44 H11        35.7410   25.8490  -41.4530 H         1 LIG      0.461800
     45 H12        38.2640   23.9580  -37.0120 H         1 LIG      0.325500
     46 H13        40.7880   21.2700  -37.3840 H         1 LIG      0.185000
     47 H14        37.9160   23.0810  -34.9030 H         1 LIG      0.134000
     48 H15        38.6750   21.6760  -33.1110 H         1 LIG      0.149000
     49 H16        40.3870   19.6580  -32.3670 H         1 LIG      0.325700
     50 H17        42.8720   17.9410  -35.6180 H         1 LIG      0.331500
     51 H18        44.6700   20.0110  -39.1530 H         1 LIG      0.147000
     52 H19        46.0480   18.6320  -40.5690 H         1 LIG      0.142500
     53 H20        46.2420   16.2290  -40.1560 H         1 LIG      0.142000
     54 H21        45.0660   15.3130  -38.2510 H         1 LIG      0.142500
     55 H22        43.6620   16.6740  -36.8610 H         1 LIG      0.147000
@<TRIPOS>BOND
     1    1    2 ar  
     2    1    7 ar  
     3    2    3 1   
     4    2    4 ar  
     5    4    5 ar  
     6    5    6 ar  
     7    6    7 ar  
     8    7    8 1   
     9    8    9 1   
    10    8   12 1   
    11    9   10 1   
    12   10   11 1   
    13   12   13 2   
    14   12   14 1   
    15   14   15 1   
    16   15   16 ar  
    17   15   18 ar  
    18   16   17 ar  
    19   17   20 ar  
    20   17   23 1   
    21   18   19 ar  
    22   19   20 ar  
    23   20   21 1   
    24   21   22 1   
    25   22   23 2   
    26   23   24 1   
    27   24   25 1   
    28   25   26 2   
    29   25   27 1   
    30   27   28 ar  
    31   27   32 ar  
    32   28   29 ar  
    33   29   30 ar  
    34   30   31 ar  
    35   31   32 ar  
    36    1   33 1   
    37    4   34 1   
    38    5   35 1   
    39    6   36 1   
    40    8   37 1   
    41    9   38 1   
    42    9   39 1   
    43   10   40 1   
    44   10   41 1   
    45   11   42 1   
    46   11   43 1   
    47   11   44 1   
    48   14   45 1   
    49   16   46 1   
    50   18   47 1   
    51   19   48 1   
    52   21   49 1   
    53   24   50 1   
    54   28   51 1   
    55   29   52 1   
    56   30   53 1   
    57   31   54 1   
    58   32   55 1   
@<TRIPOS>SUBSTRUCTURE
     1 LIG         1 TEMP              0 ****  ****    0 ROOT
