@<TRIPOS>MOLECULE
57D
   29    31     1     0     0
SMALL
bcc


@<TRIPOS>ATOM
      1 C          -1.1450   -0.1850    0.0090 cc        1 LIG      0.202900
      2 C1         -0.7230   -1.4770    0.0080 cd        1 LIG     -0.316200
      3 C2          0.6660   -1.7570    0.0100 c         1 LIG      0.607900
      4 C3          1.5890   -0.6100    0.0130 ca        1 LIG     -0.333600
      5 C4          2.9770   -0.7930    0.0130 ca        1 LIG      0.267100
      6 C5          3.8090    0.3120    0.0150 ca        1 LIG     -0.298000
      7 C6          3.2700    1.5930    0.0160 ca        1 LIG      0.215100
      8 C7          1.8960    1.7820    0.0160 ca        1 LIG     -0.234000
      9 C8          1.0460    0.6870    0.0140 ca        1 LIG      0.212100
     10 O          -0.2940    0.8530    0.0120 os        1 LIG     -0.221200
     11 O1          1.0810   -2.9050    0.0090 o         1 LIG     -0.589100
     12 O2          3.5020   -2.0440    0.0130 oh        1 LIG     -0.497100
     13 O3          4.0960    2.6710    0.0180 oh        1 LIG     -0.486100
     14 C9         -3.0640    1.4030    0.0030 ca        1 LIG     -0.090500
     15 C10        -4.4210    1.6500   -0.0050 ca        1 LIG     -0.136500
     16 C11        -5.3190    0.5970   -0.0140 ca        1 LIG     -0.106000
     17 C12        -4.8630   -0.7090   -0.0150 ca        1 LIG     -0.136500
     18 C13        -3.5080   -0.9710   -0.0080 ca        1 LIG     -0.090500
     19 C14        -2.5970    0.0870    0.0020 ca        1 LIG     -0.081800
     20 H          -1.4090   -2.2480    0.0060 ha        1 LIG      0.171000
     21 H1          4.8330    0.1850    0.0160 ha        1 LIG      0.160000
     22 H2          1.5060    2.7380    0.0180 ha        1 LIG      0.173000
     23 H3          2.9350   -2.7900    0.0120 ho        1 LIG      0.469000
     24 H4          5.0250    2.5490    0.0180 ho        1 LIG      0.430000
     25 H5         -2.3950    2.1890    0.0100 ha        1 LIG      0.146000
     26 H6         -4.7670    2.6220   -0.0040 ha        1 LIG      0.139000
     27 H7         -6.3330    0.7870   -0.0200 ha        1 LIG      0.137000
     28 H8         -5.5380   -1.4900   -0.0210 ha        1 LIG      0.139000
     29 H9         -3.1690   -1.9460   -0.0100 ha        1 LIG      0.146000
@<TRIPOS>BOND
     1    1    2 2   
     2    1   10 1   
     3    1   19 1   
     4    2    3 1   
     5    3    4 1   
     6    3   11 2   
     7    4    5 ar  
     8    4    9 ar  
     9    5    6 ar  
    10    5   12 1   
    11    6    7 ar  
    12    7    8 ar  
    13    7   13 1   
    14    8    9 ar  
    15    9   10 1   
    16   14   15 ar  
    17   14   19 ar  
    18   15   16 ar  
    19   16   17 ar  
    20   17   18 ar  
    21   18   19 ar  
    22    2   20 1   
    23    6   21 1   
    24    8   22 1   
    25   12   23 1   
    26   13   24 1   
    27   14   25 1   
    28   15   26 1   
    29   16   27 1   
    30   17   28 1   
    31   18   29 1   
@<TRIPOS>SUBSTRUCTURE
     1 LIG         1 TEMP              0 ****  ****    0 ROOT
