@<TRIPOS>MOLECULE
B3T
   20    19     1     0     0
SMALL
bcc


@<TRIPOS>ATOM
      1 C          -1.8350    0.3620   -0.5040 c3        1 LIG      0.098100
      2 O          -2.0550    1.3010    0.5510 oh        1 LIG     -0.592800
      3 C1         -2.9470   -0.6890   -0.4920 c3        1 LIG     -0.135100
      4 C2         -0.4830   -0.3240   -0.3010 c3        1 LIG      0.140500
      5 N          -0.5190   -1.1250    0.9300 n4        1 LIG     -1.127600
      6 C3          0.6150    0.7350   -0.1890 c3        1 LIG     -0.168400
      7 C4          1.9600    0.0590   -0.1120 c         1 LIG      0.884600
      8 O1          2.0330   -1.1470   -0.1450 o         1 LIG     -0.566800
      9 O2          3.0770    0.7960   -0.0080 o         1 LIG     -0.566800
     10 H          -1.8390    0.8740   -1.4440 h1        1 LIG      0.086700
     11 H1         -2.0520    0.8370    1.4030 ho        1 LIG      0.396000
     12 H2         -2.9440   -1.2010    0.4480 hc        1 LIG      0.049033
     13 H3         -2.7820   -1.3920   -1.2820 hc        1 LIG      0.049033
     14 H4         -3.8930   -0.2090   -0.6330 hc        1 LIG      0.049033
     15 H5         -0.2790   -0.9620   -1.1350 hx        1 LIG      0.077700
     16 H6         -0.7140   -0.5170    1.7260 hn        1 LIG      0.386133
     17 H7          0.3830   -1.5830    1.0640 hn        1 LIG      0.386133
     18 H8         -1.2510   -1.8310    0.8550 hn        1 LIG      0.386133
     19 H9          0.4580    1.3190    0.6940 hc        1 LIG      0.084200
     20 H10         0.5850    1.3720   -1.0480 hc        1 LIG      0.084200
@<TRIPOS>BOND
     1    1    3 1   
     2    2    1 1   
     3    4    1 1   
     4    4    5 1   
     5    6    4 1   
     6    7    6 1   
     7    7    9 1   
     8    8    7 1   
     9    1   10 1   
    10    2   11 1   
    11    3   12 1   
    12    3   13 1   
    13    3   14 1   
    14    4   15 1   
    15    5   16 1   
    16    5   17 1   
    17    5   18 1   
    18    6   19 1   
    19    6   20 1   
@<TRIPOS>SUBSTRUCTURE
     1 LIG         1 TEMP              0 ****  ****    0 ROOT
