@<TRIPOS>MOLECULE
BZG
   48    51     1     0     0
SMALL
bcc


@<TRIPOS>ATOM
      1 P           6.4080    1.8860    0.3760 p5        1 LIG      1.330900
      2 O           6.6990    2.4590    1.8520 o         1 LIG     -0.930167
      3 O1          7.6610    1.3490   -0.2010 o         1 LIG     -0.930167
      4 O2          5.3110    0.7100    0.4640 os        1 LIG     -0.553200
      5 C          -7.0410    1.0270   -1.2700 ca        1 LIG     -0.115500
      6 C1         -7.9090    2.0610   -1.5710 ca        1 LIG     -0.136500
      7 C2         -8.2300    2.9960   -0.6050 ca        1 LIG     -0.140000
      8 C3         -7.6840    2.8980    0.6610 ca        1 LIG     -0.136500
      9 C4         -6.8160    1.8650    0.9610 ca        1 LIG     -0.115500
     10 C5         -6.4950    0.9290   -0.0040 ca        1 LIG     -0.085300
     11 C6         -5.5500   -0.1980    0.3230 c3        1 LIG      0.179700
     12 O3         -4.2090    0.2060    0.0360 os        1 LIG     -0.425100
     13 C7         -3.2300   -0.6980    0.2770 ca        1 LIG      0.717600
     14 N          -3.5200   -1.9000    0.7570 nb        1 LIG     -0.841000
     15 C8         -2.5680   -2.7930    0.9960 ca        1 LIG      0.847900
     16 N1         -2.9250   -4.0340    1.4970 nh        1 LIG     -0.899500
     17 N2         -1.2890   -2.5380    0.7710 nb        1 LIG     -0.747000
     18 C9         -0.9100   -1.3590    0.2910 ca        1 LIG      0.450800
     19 C10        -1.8870   -0.3850    0.0180 ca        1 LIG     -0.186200
     20 N3         -1.2390    0.7050   -0.4630 nc        1 LIG     -0.557100
     21 C11         0.0390    0.4660   -0.5060 cd        1 LIG      0.455700
     22 N4          0.2930   -0.7920   -0.0430 na        1 LIG     -0.260000
     23 C12         1.6100   -1.4260    0.0620 c3        1 LIG      0.253800
     24 O4          2.6450   -0.4240    0.1620 os        1 LIG     -0.434600
     25 C13         1.9370   -2.2050   -1.2310 c3        1 LIG     -0.130400
     26 C14         4.9150   -0.0710   -0.6650 c3        1 LIG      0.227400
     27 C15         3.8620   -1.0930   -0.2350 c3        1 LIG      0.052100
     28 C16         3.4530   -1.9810   -1.4310 c3        1 LIG      0.156100
     29 O5          4.1520   -3.2260   -1.3930 oh        1 LIG     -0.671800
     30 O6          5.8500    3.0710   -0.5610 o         1 LIG     -0.930167
     31 H          -6.8010    0.3290   -1.9910 ha        1 LIG      0.150000
     32 H1         -8.3170    2.1340   -2.5160 ha        1 LIG      0.125500
     33 H2         -8.8780    3.7680   -0.8290 ha        1 LIG      0.120000
     34 H3         -7.9240    3.5960    1.3820 ha        1 LIG      0.125500
     35 H4         -6.4070    1.7930    1.9060 ha        1 LIG      0.150000
     36 H5         -5.7990   -1.0550   -0.2680 h1        1 LIG      0.056200
     37 H6         -5.6340   -0.4440    1.3610 h1        1 LIG      0.056200
     38 H7         -3.8720   -4.2410    1.6700 hn        1 LIG      0.390800
     39 H8         -2.2320   -4.7090    1.6800 hn        1 LIG      0.390800
     40 H9          0.7550    1.1300   -0.8410 h5        1 LIG      0.128800
     41 H10         1.5800   -2.0630    0.9210 h2        1 LIG      0.070700
     42 H11         1.3830   -1.8160   -2.0590 hc        1 LIG      0.054700
     43 H12         1.6800   -3.2410   -1.1630 hc        1 LIG      0.054700
     44 H13         5.7670   -0.5820   -1.0610 h1        1 LIG     -0.004300
     45 H14         4.5030    0.5710   -1.4150 h1        1 LIG     -0.004300
     46 H15         4.2900   -1.6620    0.5630 h1        1 LIG      0.081700
     47 H16         3.6830   -1.5330   -2.3750 h1        1 LIG      0.104700
     48 H17         3.9730   -3.6720   -0.5500 ho        1 LIG      0.501000
@<TRIPOS>BOND
     1    1    2 1   
     2    1    3 1   
     3    1    4 1   
     4    1   30 1   
     5    4   26 1   
     6    5    6 ar  
     7    5   10 ar  
     8    6    7 ar  
     9    7    8 ar  
    10    8    9 ar  
    11    9   10 ar  
    12   10   11 1   
    13   11   12 1   
    14   12   13 1   
    15   13   14 ar  
    16   13   19 ar  
    17   14   15 ar  
    18   15   16 1   
    19   15   17 ar  
    20   17   18 ar  
    21   18   19 ar  
    22   18   22 1   
    23   19   20 1   
    24   20   21 2   
    25   21   22 1   
    26   22   23 1   
    27   23   24 1   
    28   23   25 1   
    29   24   27 1   
    30   25   28 1   
    31   26   27 1   
    32   27   28 1   
    33   28   29 1   
    34    5   31 1   
    35    6   32 1   
    36    7   33 1   
    37    8   34 1   
    38    9   35 1   
    39   11   36 1   
    40   11   37 1   
    41   16   38 1   
    42   16   39 1   
    43   21   40 1   
    44   23   41 1   
    45   25   42 1   
    46   25   43 1   
    47   26   44 1   
    48   26   45 1   
    49   27   46 1   
    50   28   47 1   
    51   29   48 1   
@<TRIPOS>SUBSTRUCTURE
     1 LIG         1 TEMP              0 ****  ****    0 ROOT
