@<TRIPOS>MOLECULE
IDG
   28    28     1     0     0
SMALL
bcc


@<TRIPOS>ATOM
      1 C          -0.1850   -0.3400    1.0960 c3        1 LIG      0.118100
      2 O           1.0080    0.1980    0.5310 os        1 LIG     -0.478600
      3 C1          1.2150   -0.4390   -0.7270 c3        1 LIG      0.336900
      4 O1          2.4910   -0.0610   -1.2480 oh        1 LIG     -0.588800
      5 C2          0.1200   -0.0150   -1.7090 c3        1 LIG      0.052500
      6 N           0.1410    1.4450   -1.8670 n4        1 LIG     -0.824600
      7 C3         -1.2410   -0.4540   -1.1590 c3        1 LIG      0.105100
      8 O2         -1.3120   -1.8810   -1.1390 oh        1 LIG     -0.521800
      9 C4         -1.3930    0.0930    0.2630 c3        1 LIG      0.073100
     10 O3         -1.4630    1.5200    0.2220 oh        1 LIG     -0.630800
     11 C5         -0.3450    0.1710    2.5290 c3        1 LIG      0.101800
     12 N1          0.8120   -0.2460    3.3310 n4        1 LIG     -0.832600
     13 H          -0.1230   -1.4080    1.1000 h1        1 LIG      0.081700
     14 H1          1.1800   -1.5000   -0.5950 h2        1 LIG      0.099700
     15 H2          2.5190    0.9010   -1.3670 ho        1 LIG      0.475000
     16 H3          0.2890   -0.4740   -2.6610 hx        1 LIG      0.159700
     17 H4         -0.0200    1.8870   -0.9620 hn        1 LIG      0.480467
     18 H5         -0.5920    1.7270   -2.5180 hn        1 LIG      0.480467
     19 H6          1.0490    1.7350   -2.2300 hn        1 LIG      0.480467
     20 H7         -2.0270   -0.0770   -1.7800 h1        1 LIG      0.130700
     21 H8         -0.6030   -2.2320   -0.5780 ho        1 LIG      0.413000
     22 H9         -2.2900   -0.2890    0.7040 h1        1 LIG      0.116700
     23 H10        -0.6520    1.8720   -0.1770 ho        1 LIG      0.463000
     24 H11        -1.2390   -0.2350    2.9550 hx        1 LIG      0.139200
     25 H12        -0.4060    1.2390    2.5210 hx        1 LIG      0.139200
     26 H13         0.8710   -1.2640    3.3390 hn        1 LIG      0.475800
     27 H14         0.7050    0.0960    4.2860 hn        1 LIG      0.475800
     28 H15         1.6640    0.1410    2.9250 hn        1 LIG      0.475800
@<TRIPOS>BOND
     1    1    2 1   
     2    1    9 1   
     3    1   11 1   
     4    2    3 1   
     5    3    4 1   
     6    3    5 1   
     7    5    6 1   
     8    5    7 1   
     9    7    8 1   
    10    7    9 1   
    11    9   10 1   
    12   11   12 1   
    13    1   13 1   
    14    3   14 1   
    15    4   15 1   
    16    5   16 1   
    17    6   17 1   
    18    6   18 1   
    19    6   19 1   
    20    7   20 1   
    21    8   21 1   
    22    9   22 1   
    23   10   23 1   
    24   11   24 1   
    25   11   25 1   
    26   12   26 1   
    27   12   27 1   
    28   12   28 1   
@<TRIPOS>SUBSTRUCTURE
     1 LIG         1 TEMP              0 ****  ****    0 ROOT
