@<TRIPOS>MOLECULE
VT1
   53    56     1     0     0
SMALL
bcc


@<TRIPOS>ATOM
      1 F          -9.6720   -1.1000    1.0340 F.        1 LIG     -0.227967
      2 C          -9.5020   -0.1030    0.0680 C.3       1 LIG      0.634900
      3 F1         -9.7520   -0.6360   -1.2010 F.        1 LIG     -0.227967
      4 F2        -10.3930    0.9460    0.3170 F.        1 LIG     -0.227967
      5 C1         -8.0660    0.4240    0.1250 C.3       1 LIG      0.088400
      6 O          -7.1550   -0.6470   -0.1300 O.2       1 LIG     -0.310900
      7 C2         -5.8300   -0.3470   -0.1150 C.a       1 LIG      0.133100
      8 C3         -4.8910   -1.3410   -0.3550 C.a       1 LIG     -0.171500
      9 C4         -3.5460   -1.0390   -0.3400 C.a       1 LIG     -0.078000
     10 C5         -5.4180    0.9560    0.1350 C.a       1 LIG     -0.171500
     11 C6         -4.0740    1.2640    0.1500 C.a       1 LIG     -0.078000
     12 C7         -3.1290    0.2660   -0.0850 C.p       1 LIG     -0.079000
     13 C8         -1.6820    0.5940   -0.0680 C.p       1 LIG     -0.117300
     14 C9         -0.7290   -0.3940   -0.3070 C.a       1 LIG      0.406200
     15 N           0.5560   -0.1040   -0.2920 N.b       1 LIG     -0.650000
     16 C10        -1.2530    1.9000    0.1820 C.a       1 LIG     -0.091000
     17 C11         0.1080    2.1550    0.1860 C.a       1 LIG     -0.207300
     18 C12         0.9910    1.1180   -0.0550 C.a       1 LIG      0.315600
     19 C13         2.4730    1.3900   -0.0500 C.3       1 LIG      0.349300
     20 F3          2.7760    2.3410   -1.0310 F.        1 LIG     -0.217300
     21 F4          2.8540    1.8780    1.2040 F.        1 LIG     -0.217300
     22 C14         3.2300    0.0940   -0.3450 C.3       1 LIG      0.188100
     23 C15         2.8990   -0.9450    0.7280 C.3       1 LIG      0.013300
     24 N1          3.7140   -2.1440    0.5150 N.a       1 LIG     -0.083400
     25 N2          3.7870   -2.8380   -0.5710 N.c       1 LIG     -0.183800
     26 N3          4.6020   -3.8160   -0.3840 N.d       1 LIG     -0.044000
     27 N4          5.0620   -3.7660    0.8180 N.d       1 LIG     -0.372000
     28 C16         4.5310   -2.7260    1.4120 C.c       1 LIG      0.389400
     29 O1          2.8410   -0.4040   -1.6270 O.h       1 LIG     -0.564800
     30 C17         4.7130    0.3660   -0.3410 C.a       1 LIG     -0.151300
     31 C18         5.3230    0.8580    0.8010 C.a       1 LIG      0.159900
     32 F5          4.5890    1.0940    1.9110 F.        1 LIG     -0.144900
     33 C19         6.6840    1.1070    0.8050 C.a       1 LIG     -0.213000
     34 C20         7.4340    0.8640   -0.3330 C.a       1 LIG      0.171900
     35 F6          8.7640    1.1070   -0.3310 F.        1 LIG     -0.127900
     36 C21         6.8220    0.3730   -1.4730 C.a       1 LIG     -0.182000
     37 C22         5.4630    0.1190   -1.4740 C.a       1 LIG     -0.030000
     38 H          -7.8740    0.8320    1.0950 H         1 LIG      0.080200
     39 H1         -7.9360    1.1860   -0.6150 H         1 LIG      0.080200
     40 H2         -5.2000   -2.3070   -0.5450 H         1 LIG      0.152000
     41 H3         -2.8490   -1.7790   -0.5170 H         1 LIG      0.142500
     42 H4         -6.1180    1.6940    0.3100 H         1 LIG      0.152000
     43 H5         -3.7680    2.2320    0.3350 H         1 LIG      0.142500
     44 H6         -1.0320   -1.3620   -0.4970 H         1 LIG      0.038100
     45 H7         -1.9330    2.6550    0.3590 H         1 LIG      0.151000
     46 H8          0.4600    3.1080    0.3670 H         1 LIG      0.165000
     47 H9          1.8620   -1.2030    0.6670 H         1 LIG      0.092700
     48 H10         3.1090   -0.5380    1.6950 H         1 LIG      0.092700
     49 H11         4.7050   -2.4140    2.3800 H         1 LIG      0.089100
     50 H12         1.8870   -0.5790   -1.6300 H         1 LIG      0.438000
     51 H13         7.1400    1.4740    1.6550 H         1 LIG      0.168000
     52 H14         7.3800    0.1960   -2.3230 H         1 LIG      0.162000
     53 H15         5.0090   -0.2550   -2.3220 H         1 LIG      0.177000
@<TRIPOS>BOND
     1    1    2 1   
     2    2    3 1   
     3    2    4 1   
     4    2    5 1   
     5    5    6 1   
     6    6    7 1   
     7    7    8 ar  
     8    7   10 ar  
     9    8    9 ar  
    10    9   12 ar  
    11   10   11 ar  
    12   11   12 ar  
    13   12   13 1   
    14   13   14 ar  
    15   13   16 ar  
    16   14   15 ar  
    17   15   18 ar  
    18   16   17 ar  
    19   17   18 ar  
    20   18   19 1   
    21   19   20 1   
    22   19   21 1   
    23   19   22 1   
    24   22   23 1   
    25   22   29 1   
    26   22   30 1   
    27   23   24 1   
    28   24   25 ar  
    29   24   28 ar  
    30   25   26 ar  
    31   26   27 ar  
    32   27   28 ar  
    33   30   31 ar  
    34   30   37 ar  
    35   31   32 1   
    36   31   33 ar  
    37   33   34 ar  
    38   34   35 1   
    39   34   36 ar  
    40   36   37 ar  
    41    5   38 1   
    42    5   39 1   
    43    8   40 1   
    44    9   41 1   
    45   10   42 1   
    46   11   43 1   
    47   14   44 1   
    48   16   45 1   
    49   17   46 1   
    50   23   47 1   
    51   23   48 1   
    52   28   49 1   
    53   29   50 1   
    54   33   51 1   
    55   36   52 1   
    56   37   53 1   
@<TRIPOS>SUBSTRUCTURE
     1 LIG         1 TEMP              0 ****  ****    0 ROOT
