@<TRIPOS>MOLECULE
KDO
   29    29     1     0     0
SMALL
bcc


@<TRIPOS>ATOM
      1 C           1.5410   -0.2690   -2.2610 c         1 LIG      0.931600
      2 O           2.3640   -1.0610   -1.8680 o         1 LIG     -0.803800
      3 O1          1.5650    0.1460   -3.5370 o         1 LIG     -0.803800
      4 C1          0.4860    0.2510   -1.3190 c3        1 LIG      0.190600
      5 O2          0.6020    1.6710   -1.2150 oh        1 LIG     -0.652800
      6 C2         -0.8990   -0.1080   -1.8590 c3        1 LIG     -0.123400
      7 C3         -1.9650    0.4530   -0.9130 c3        1 LIG      0.113100
      8 O3         -3.2570    0.0010   -1.3230 oh        1 LIG     -0.611800
      9 C4         -1.6690   -0.0430    0.5060 c3        1 LIG      0.085100
     10 O4         -1.8450   -1.4600    0.5630 oh        1 LIG     -0.617800
     11 C5         -0.2260    0.3120    0.8680 c3        1 LIG      0.087100
     12 O5          0.6700   -0.3350   -0.0320 os        1 LIG     -0.424600
     13 C6          0.0680   -0.1470    2.2970 c3        1 LIG      0.101100
     14 O6         -0.8270    0.5020    3.2010 oh        1 LIG     -0.614800
     15 C7          1.5100    0.2100    2.6620 c3        1 LIG      0.105400
     16 O7          1.7850   -0.2190    3.9970 oh        1 LIG     -0.612800
     17 H           0.4770    2.0710   -2.0900 ho        1 LIG      0.439000
     18 H1         -0.9960   -1.1720   -1.9180 hc        1 LIG      0.072700
     19 H2         -1.0260    0.3110   -2.8350 hc        1 LIG      0.072700
     20 H3         -1.9490    1.5230   -0.9360 h1        1 LIG      0.074700
     21 H4         -3.2810   -0.9690   -1.3050 ho        1 LIG      0.406000
     22 H5         -2.3380    0.4220    1.1990 h1        1 LIG      0.076700
     23 H6         -1.2400   -1.8860   -0.0640 ho        1 LIG      0.430000
     24 H7         -0.0940    1.3710    0.7970 h1        1 LIG      0.053700
     25 H8         -0.0650   -1.2070    2.3640 h1        1 LIG      0.101700
     26 H9         -0.7070    1.4630    3.1410 ho        1 LIG      0.393000
     27 H10         1.6430    1.2700    2.5940 h1        1 LIG      0.065200
     28 H11         2.1800   -0.2790    1.9860 h1        1 LIG      0.065200
     29 H12         1.1780    0.2240    4.6100 ho        1 LIG      0.398000
@<TRIPOS>BOND
     1    1    2 1   
     2    1    3 1   
     3    1    4 1   
     4    4    5 1   
     5    4    6 1   
     6    4   12 1   
     7    6    7 1   
     8    7    8 1   
     9    7    9 1   
    10    9   10 1   
    11    9   11 1   
    12   11   12 1   
    13   11   13 1   
    14   13   14 1   
    15   13   15 1   
    16   15   16 1   
    17    5   17 1   
    18    6   18 1   
    19    6   19 1   
    20    7   20 1   
    21    8   21 1   
    22    9   22 1   
    23   10   23 1   
    24   11   24 1   
    25   13   25 1   
    26   14   26 1   
    27   15   27 1   
    28   15   28 1   
    29   16   29 1   
@<TRIPOS>SUBSTRUCTURE
     1 LIG         1 TEMP              0 ****  ****    0 ROOT
