@<TRIPOS>MOLECULE
MTT
   87    90     1     0     0
SMALL
bcc


@<TRIPOS>ATOM
      1 O          -2.2360   -2.2380   -6.6540 oh        1 LIG     -0.593800
      2 C          -1.6920   -0.9170   -6.6260 c3        1 LIG      0.095100
      3 C1         -2.5660   -0.0210   -5.7410 c3        1 LIG      0.067100
      4 O1         -3.8490    0.1490   -6.3460 oh        1 LIG     -0.587800
      5 C2         -1.8800    1.3410   -5.5970 c3        1 LIG      0.104100
      6 O2         -2.6000    2.1440   -4.6590 oh        1 LIG     -0.575800
      7 C3         -0.4490    1.1290   -5.0980 c3        1 LIG      0.300900
      8 C4         -0.2750   -0.9590   -6.0480 c3        1 LIG      0.100100
      9 O3          0.2820    0.3520   -6.0440 os        1 LIG     -0.444600
     10 C5          0.5960   -1.8800   -6.9040 c3        1 LIG      0.141400
     11 O4          1.9180   -1.9230   -6.3630 oh        1 LIG     -0.596800
     12 O5         -0.4810    0.4450   -3.8440 os        1 LIG     -0.454600
     13 C6          0.8200    0.5730   -3.2690 c3        1 LIG      0.134100
     14 C7          0.9420    1.9330   -2.5740 c3        1 LIG      0.087100
     15 O6          0.8910    2.9760   -3.5490 oh        1 LIG     -0.605800
     16 C8          2.2820    1.9850   -1.8300 c3        1 LIG      0.093100
     17 O7          2.3520    3.1840   -1.0550 oh        1 LIG     -0.589800
     18 C9          2.3870    0.7690   -0.9070 c3        1 LIG      0.301900
     19 C10         1.0370   -0.5370   -2.2390 c3        1 LIG      0.096100
     20 O8          2.3440   -0.4280   -1.6790 os        1 LIG     -0.438600
     21 C11         0.8860   -1.9000   -2.9180 c3        1 LIG      0.139400
     22 O9          0.9520   -2.9330   -1.9330 oh        1 LIG     -0.595800
     23 O10         1.2950    0.7780    0.0150 os        1 LIG     -0.456600
     24 C12         1.6180   -0.1570    1.0450 c3        1 LIG      0.133100
     25 C13         2.4840    0.5270    2.1080 c3        1 LIG      0.086100
     26 O11         3.7520    0.8710    1.5450 oh        1 LIG     -0.604800
     27 C14         2.6840   -0.4420    3.2780 c3        1 LIG      0.092100
     28 O12         3.3630    0.2260    4.3430 oh        1 LIG     -0.588800
     29 C15         1.3150   -0.9240    3.7650 c3        1 LIG      0.302900
     30 C16         0.3300   -0.6630    1.6990 c3        1 LIG      0.097100
     31 O13         0.6450   -1.6160    2.7130 os        1 LIG     -0.436600
     32 C17        -0.5540   -1.3220    0.6390 c3        1 LIG      0.139400
     33 O14        -1.7870   -1.7320    1.2360 oh        1 LIG     -0.595800
     34 O15         0.5310    0.1990    4.1680 os        1 LIG     -0.459600
     35 C18        -0.5750   -0.3140    4.9120 c3        1 LIG      0.129100
     36 C19        -0.1620   -0.5120    6.3740 c3        1 LIG      0.085100
     37 O16         0.8200   -1.5460    6.4600 oh        1 LIG     -0.600800
     38 C20        -1.4020   -0.9090    7.1840 c3        1 LIG      0.048100
     39 O17        -1.0710   -0.9550    8.5740 oh        1 LIG     -0.587800
     40 C21        -2.5020    0.1290    6.9520 c3        1 LIG      0.306900
     41 O18        -2.0290    1.4180    7.3490 oh        1 LIG     -0.607800
     42 C22        -1.7380    0.6770    4.8500 c3        1 LIG      0.092100
     43 O19        -2.8540    0.1590    5.5710 os        1 LIG     -0.431600
     44 C23        -2.1370    0.9060    3.3900 c3        1 LIG      0.143400
     45 O20        -3.1730    1.8870    3.3280 oh        1 LIG     -0.593800
     46 H          -3.1340   -2.2100   -7.0200 ho        1 LIG      0.425000
     47 H1         -1.6650   -0.5260   -7.6220 h1        1 LIG      0.046700
     48 H2         -2.6930   -0.4710   -4.7790 h1        1 LIG      0.101700
     49 H3         -3.7430    0.5560   -7.2200 ho        1 LIG      0.409000
     50 H4         -1.8630    1.8380   -6.5450 h1        1 LIG      0.089700
     51 H5         -2.6190    1.6970   -3.7980 ho        1 LIG      0.421000
     52 H6          0.0290    2.0790   -4.9780 h2        1 LIG      0.127700
     53 H7         -0.3120   -1.3300   -5.0450 h1        1 LIG      0.073700
     54 H8          0.6330   -1.5070   -7.9060 h1        1 LIG      0.063700
     55 H9          0.1790   -2.8650   -6.9060 h1        1 LIG      0.063700
     56 H10         2.2960   -1.0300   -6.3610 ho        1 LIG      0.408000
     57 H11         1.5560    0.4960   -4.0420 h1        1 LIG      0.082700
     58 H12         0.1360    2.0640   -1.8820 h1        1 LIG      0.060700
     59 H13         1.6190    2.8640   -4.1800 ho        1 LIG      0.424000
     60 H14         3.0880    1.9740   -2.5340 h1        1 LIG      0.103700
     61 H15         1.6230    3.1990   -0.4150 ho        1 LIG      0.421000
     62 H16         3.3120    0.8110   -0.3710 h2        1 LIG      0.128700
     63 H17         0.3100   -0.4420   -1.4600 h1        1 LIG      0.070700
     64 H18         1.6750   -2.0340   -3.6280 h1        1 LIG      0.065200
     65 H19        -0.0580   -1.9460   -3.4200 h1        1 LIG      0.065200
     66 H20         1.8080   -2.8920   -1.4780 ho        1 LIG      0.411000
     67 H21         2.1540   -0.9790    0.6190 h1        1 LIG      0.084700
     68 H22         2.0030    1.4180    2.4530 h1        1 LIG      0.059700
     69 H23         4.1950    0.0670    1.2300 ho        1 LIG      0.424000
     70 H24         3.2700   -1.2790    2.9580 h1        1 LIG      0.105700
     71 H25         2.8360    0.9860    4.6360 ho        1 LIG      0.419000
     72 H26         1.4490   -1.5860    4.5950 h2        1 LIG      0.129700
     73 H27        -0.1900    0.1620    2.1390 h1        1 LIG      0.069700
     74 H28        -0.0510   -2.1760    0.2360 h1        1 LIG      0.065200
     75 H29        -0.7520   -0.6220   -0.1460 h1        1 LIG      0.065200
     76 H30        -1.6070   -2.3660    1.9470 ho        1 LIG      0.413000
     77 H31        -0.8770   -1.2510    4.4930 h1        1 LIG      0.089700
     78 H32         0.2530    0.3940    6.7630 h1        1 LIG      0.045700
     79 H33         0.4510   -2.3720    6.1090 ho        1 LIG      0.428000
     80 H34        -1.7440   -1.8740    6.8720 h1        1 LIG      0.107700
     81 H35        -0.7600   -0.0820    8.8610 ho        1 LIG      0.419000
     82 H36        -3.3630   -0.1330    7.5300 h2        1 LIG      0.128700
     83 H37        -1.2490    1.6520    6.8230 ho        1 LIG      0.409000
     84 H38        -1.4340    1.6040    5.2890 h1        1 LIG      0.058700
     85 H39        -2.4890   -0.0120    2.9680 h1        1 LIG      0.064700
     86 H40        -1.2870    1.2490    2.8380 h1        1 LIG      0.064700
     87 H41        -3.9430    1.5760    3.8290 ho        1 LIG      0.417000
@<TRIPOS>BOND
     1    1    2 1   
     2    2    3 1   
     3    2    8 1   
     4    3    4 1   
     5    3    5 1   
     6    5    6 1   
     7    5    7 1   
     8    7    9 1   
     9    7   12 1   
    10    8    9 1   
    11    8   10 1   
    12   10   11 1   
    13   12   13 1   
    14   13   14 1   
    15   13   19 1   
    16   14   15 1   
    17   14   16 1   
    18   16   17 1   
    19   16   18 1   
    20   18   20 1   
    21   18   23 1   
    22   19   20 1   
    23   19   21 1   
    24   21   22 1   
    25   23   24 1   
    26   24   25 1   
    27   24   30 1   
    28   25   26 1   
    29   25   27 1   
    30   27   28 1   
    31   27   29 1   
    32   29   31 1   
    33   29   34 1   
    34   30   31 1   
    35   30   32 1   
    36   32   33 1   
    37   34   35 1   
    38   35   36 1   
    39   35   42 1   
    40   36   37 1   
    41   36   38 1   
    42   38   39 1   
    43   38   40 1   
    44   40   41 1   
    45   40   43 1   
    46   42   43 1   
    47   42   44 1   
    48   44   45 1   
    49    1   46 1   
    50    2   47 1   
    51    3   48 1   
    52    4   49 1   
    53    5   50 1   
    54    6   51 1   
    55    7   52 1   
    56    8   53 1   
    57   10   54 1   
    58   10   55 1   
    59   11   56 1   
    60   13   57 1   
    61   14   58 1   
    62   15   59 1   
    63   16   60 1   
    64   17   61 1   
    65   18   62 1   
    66   19   63 1   
    67   21   64 1   
    68   21   65 1   
    69   22   66 1   
    70   24   67 1   
    71   25   68 1   
    72   26   69 1   
    73   27   70 1   
    74   28   71 1   
    75   29   72 1   
    76   30   73 1   
    77   32   74 1   
    78   32   75 1   
    79   33   76 1   
    80   35   77 1   
    81   36   78 1   
    82   37   79 1   
    83   38   80 1   
    84   39   81 1   
    85   40   82 1   
    86   41   83 1   
    87   42   84 1   
    88   44   85 1   
    89   44   86 1   
    90   45   87 1   
@<TRIPOS>SUBSTRUCTURE
     1 LIG         1 TEMP              0 ****  ****    0 ROOT
