@<TRIPOS>MOLECULE
10Y
   50    50     1     0     0
SMALL
bcc


@<TRIPOS>ATOM
      1 O           7.8580    0.3870    0.9850 O.3       1 LIG     -0.852800
      2 C           7.6000    1.1090    0.0510 C.        1 LIG      0.907600
      3 O1          8.5280    1.9580   -0.4170 O.3       1 LIG     -0.852800
      4 C1          6.2390    1.0500   -0.5940 C.3       1 LIG     -0.194400
      5 C2          5.3810    0.0030    0.1200 C.3       1 LIG     -0.065400
      6 C3          3.9990   -0.0560   -0.5340 C.3       1 LIG     -0.078400
      7 C4          3.1420   -1.1030    0.1800 C.3       1 LIG     -0.079400
      8 C5          1.7600   -1.1620   -0.4740 C.3       1 LIG     -0.079400
      9 C6          0.9020   -2.2090    0.2390 C.3       1 LIG     -0.078400
     10 C7         -0.4800   -2.2680   -0.4150 C.3       1 LIG     -0.055200
     11 C8         -1.3240   -3.2990    0.2880 C.2       1 LIG     -0.148200
     12 C9         -2.5140   -2.9780    0.7340 C.2       1 LIG     -0.194200
     13 C10        -3.1070   -1.6350    0.3980 C.3       1 LIG     -0.043200
     14 C11        -4.4900   -1.8300   -0.2270 C.x       1 LIG      0.073100
     15 O2         -5.6160   -1.2870    0.4650 O.2       1 LIG     -0.413600
     16 C12        -5.2320   -0.5860   -0.7210 C.x       1 LIG      0.063100
     17 C13        -4.5400    0.7690   -0.5550 C.3       1 LIG     -0.045200
     18 C14        -5.4040    1.8500   -1.1530 C.2       1 LIG     -0.172200
     19 C15        -5.7150    2.9060   -0.4440 C.2       1 LIG     -0.170200
     20 C16        -5.0760    3.1240    0.9040 C.3       1 LIG     -0.052200
     21 C17        -4.4420    4.5160    0.9480 C.3       1 LIG     -0.090100
     22 H           6.3440    0.7820   -1.6250 H         1 LIG      0.018700
     23 H1          5.7680    2.0080   -0.5200 H         1 LIG      0.018700
     24 H2          5.2770    0.2700    1.1510 H         1 LIG      0.044200
     25 H3          5.8520   -0.9550    0.0460 H         1 LIG      0.044200
     26 H4          4.1030   -0.3230   -1.5650 H         1 LIG      0.025700
     27 H5          3.5280    0.9020   -0.4600 H         1 LIG      0.025700
     28 H6          3.0380   -0.8360    1.2110 H         1 LIG      0.037700
     29 H7          3.6130   -2.0610    0.1060 H         1 LIG      0.037700
     30 H8          1.8650   -1.4290   -1.5050 H         1 LIG      0.034200
     31 H9          1.2890   -0.2040   -0.3990 H         1 LIG      0.034200
     32 H10         1.3730   -3.1670    0.1640 H         1 LIG      0.040700
     33 H11         0.7970   -1.9420    1.2700 H         1 LIG      0.040700
     34 H12        -0.3760   -2.5350   -1.4460 H         1 LIG      0.047700
     35 H13        -0.9510   -1.3100   -0.3410 H         1 LIG      0.047700
     36 H14        -0.9650   -4.2580    0.4180 H         1 LIG      0.124000
     37 H15        -3.0450   -3.6460    1.3150 H         1 LIG      0.120000
     38 H16        -2.4700   -1.1280   -0.2960 H         1 LIG      0.063700
     39 H17        -3.1980   -1.0520    1.2900 H         1 LIG      0.063700
     40 H18        -4.2240   -2.7810   -0.6380 H         1 LIG      0.089700
     41 H19        -5.7130   -0.2850   -1.6280 H         1 LIG      0.085700
     42 H20        -3.5940    0.7500   -1.0550 H         1 LIG      0.064700
     43 H21        -4.3890    0.9680    0.4850 H         1 LIG      0.064700
     44 H22        -5.7500    1.7580   -2.1210 H         1 LIG      0.126000
     45 H23        -6.3980    3.5890   -0.8080 H         1 LIG      0.121000
     46 H24        -4.3210    2.3830    1.0650 H         1 LIG      0.049700
     47 H25        -5.8200    3.0460    1.6690 H         1 LIG      0.049700
     48 H26        -3.6980    4.5930    0.1830 H         1 LIG      0.034033
     49 H27        -3.9880    4.6710    1.9050 H         1 LIG      0.034033
     50 H28        -5.1970    5.2570    0.7870 H         1 LIG      0.034033
@<TRIPOS>BOND
     1    1    2 1   
     2    2    3 1   
     3    4    2 1   
     4    5    4 1   
     5    6    5 1   
     6    7    6 1   
     7    8    7 1   
     8    9   10 1   
     9    9    8 1   
    10   11   10 1   
    11   12   11 2   
    12   13   12 1   
    13   14   13 1   
    14   15   14 1   
    15   16   15 1   
    16   16   14 1   
    17   17   16 1   
    18   18   17 1   
    19   19   18 2   
    20   19   20 1   
    21   21   20 1   
    22    4   22 1   
    23    4   23 1   
    24    5   24 1   
    25    5   25 1   
    26    6   26 1   
    27    6   27 1   
    28    7   28 1   
    29    7   29 1   
    30    8   30 1   
    31    8   31 1   
    32    9   32 1   
    33    9   33 1   
    34   10   34 1   
    35   10   35 1   
    36   11   36 1   
    37   12   37 1   
    38   13   38 1   
    39   13   39 1   
    40   14   40 1   
    41   16   41 1   
    42   17   42 1   
    43   17   43 1   
    44   18   44 1   
    45   19   45 1   
    46   20   46 1   
    47   20   47 1   
    48   21   48 1   
    49   21   49 1   
    50   21   50 1   
@<TRIPOS>SUBSTRUCTURE
     1 LIG         1 TEMP              0 ****  ****    0 ROOT
