@<TRIPOS>MOLECULE
LPM
   29    28     1     0     0
SMALL
bcc


@<TRIPOS>ATOM
      1 C           0.3040    0.0350    4.8800 C.        1 LIG      0.656100
      2 O           1.3660    0.6180    4.8130 O.3       1 LIG     -0.613100
      3 N          -0.2420   -0.2320    6.0820 N.        1 LIG     -0.682000
      4 C1         -0.4020   -0.3890    3.6190 C.3       1 LIG     -0.148400
      5 C2          0.4250    0.0310    2.4030 C.3       1 LIG     -0.072400
      6 C3         -0.2930   -0.3990    1.1230 C.3       1 LIG     -0.087400
      7 C4          0.5340    0.0210   -0.0920 C.3       1 LIG     -0.077400
      8 C5         -0.1830   -0.4100   -1.3720 C.3       1 LIG      0.031400
      9 S          -1.8140    0.3800   -1.4470 S.h       1 LIG     -0.393900
     10 C6          0.6440    0.0110   -2.5880 C.3       1 LIG     -0.078400
     11 C7         -0.0740   -0.4200   -3.8680 C.3       1 LIG     -0.005300
     12 S1          0.9070    0.0790   -5.3100 S.h       1 LIG     -0.370900
     13 H           0.2210    0.0460    6.9050 H         1 LIG      0.310500
     14 H1         -1.1040   -0.7050    6.1370 H         1 LIG      0.310500
     15 H2         -1.3630    0.0790    3.5750 H         1 LIG      0.062700
     16 H3         -0.5210   -1.4520    3.6180 H         1 LIG      0.062700
     17 H4          1.3860   -0.4370    2.4470 H         1 LIG      0.059200
     18 H5          0.5450    1.0940    2.4040 H         1 LIG      0.059200
     19 H6         -1.2540    0.0690    1.0790 H         1 LIG      0.050200
     20 H7         -0.4130   -1.4620    1.1220 H         1 LIG      0.050200
     21 H8          1.4960   -0.4460   -0.0480 H         1 LIG      0.050700
     22 H9          0.6530    1.0840   -0.0910 H         1 LIG      0.050700
     23 H10        -0.3010   -1.4740   -1.3730 H         1 LIG      0.090700
     24 H11        -1.6630    1.7320   -1.4460 H         1 LIG      0.205800
     25 H12         1.6060   -0.4560   -2.5440 H         1 LIG      0.055700
     26 H13         0.7630    1.0740   -2.5870 H         1 LIG      0.055700
     27 H14        -1.0360    0.0470   -3.9120 H         1 LIG      0.085200
     28 H15        -0.1930   -1.4830   -3.8690 H         1 LIG      0.085200
     29 H16         1.0590    1.4310   -5.3090 H         1 LIG      0.198800
@<TRIPOS>BOND
     1    1    2 2   
     2    1    3 1   
     3    1    4 1   
     4    4    5 1   
     5    5    6 1   
     6    6    7 1   
     7    7    8 1   
     8    8    9 1   
     9    8   10 1   
    10   10   11 1   
    11   11   12 1   
    12    3   13 1   
    13    3   14 1   
    14    4   15 1   
    15    4   16 1   
    16    5   17 1   
    17    5   18 1   
    18    6   19 1   
    19    6   20 1   
    20    7   21 1   
    21    7   22 1   
    22    8   23 1   
    23    9   24 1   
    24   10   25 1   
    25   10   26 1   
    26   11   27 1   
    27   11   28 1   
    28   12   29 1   
@<TRIPOS>SUBSTRUCTURE
     1 LIG         1 TEMP              0 ****  ****    0 ROOT
