@<TRIPOS>MOLECULE
PDG
   41    41     1     0     0
SMALL
bcc


@<TRIPOS>ATOM
      1 N           1.6830    3.6950    0.4900 N.b       0 UNK     -0.671000
      2 C           0.4710    3.9330    0.0290 C.a       0 UNK      0.317600
      3 C1         -0.0940    5.3280    0.1030 C.3       0 UNK     -0.131400
      4 C2         -0.2920    2.9120   -0.5200 C.a       0 UNK     -0.050200
      5 O          -1.5400    3.1630   -0.9940 O.h       0 UNK     -0.541100
      6 C3          0.2450    1.6300   -0.5870 C.a       0 UNK     -0.169300
      7 C4         -0.5470    0.4930   -1.1800 C.3       0 UNK      0.179100
      8 C5          1.5210    1.4230   -0.0900 C.a       0 UNK     -0.129600
      9 C6          2.2180    2.4900    0.4470 C.a       0 UNK      0.392200
     10 C7          2.1440    0.0520   -0.1350 C.3       0 UNK      0.239700
     11 O1          3.4530    0.1040    0.4350 O.2       0 UNK     -0.554200
     12 P           4.0550   -1.3870    0.3550 P.5       0 UNK      1.315900
     13 O2          4.0030   -1.8660   -1.0440 O.3       0 UNK     -0.913833
     14 O3          5.5840   -1.3760    0.8610 O.3       0 UNK     -0.913833
     15 O4          3.1870   -2.3670    1.2910 O.3       0 UNK     -0.913833
     16 N          -1.3340   -0.1580   -0.1250 N.4       1 GLU     -0.748000
     17 CA         -2.0770   -1.2510   -0.7660 C.3       1 GLU     -0.027500
     18 CB         -3.3320   -1.5630    0.0510 C.3       1 GLU     -0.070400
     19 CG         -4.2750   -0.3590    0.0180 C.3       1 GLU     -0.207400
     20 CD         -5.5110   -0.6670    0.8240 C.        1 GLU      0.910600
     21 OE1        -6.4850    0.2510    0.9360 O.3       1 GLU     -0.859800
     22 OE2        -5.6260   -1.7390    1.3680 O.3       1 GLU     -0.859800
     23 C          -1.2050   -2.4780   -0.8370 C.        1 GLU      0.919600
     24 O          -0.0800   -2.4460   -0.3970 O.3       1 GLU     -0.812300
     25 OXT        -1.6780   -3.6070   -1.3870 O.3       1 GLU     -0.812300
     26 H           0.6250    5.9810    0.5510 H         0 UNK      0.031033
     27 H3         -0.9860    5.3210    0.6940 H         0 UNK      0.031033
     28 H4         -0.3230    5.6730   -0.8840 H         0 UNK      0.031033
     29 H5         -1.8940    4.0290   -0.9450 H         0 UNK      0.422000
     30 H6          0.1220   -0.2190   -1.6160 H         0 UNK      0.095200
     31 H7         -1.2050    0.8720   -1.9340 H         0 UNK      0.095200
     32 H8          3.1690    2.3410    0.8190 H         0 UNK      0.172100
     33 H9          2.2100   -0.2760   -1.1510 H         0 UNK      0.026200
     34 H10         1.5400   -0.6330    0.4220 H         0 UNK      0.026200
     35 H1         -1.9820    0.5100    0.2930 H         1 GLU      0.457300
     36 H2         -0.7310   -0.5110    0.6180 H         1 GLU      0.457300
     37 HA         -2.3600   -0.9570   -1.7550 H         1 GLU      0.078700
     38 HB1        -3.0560   -1.7720    1.0630 H         1 GLU      0.072200
     39 HB2        -3.8270   -2.4150   -0.3670 H         1 GLU      0.072200
     40 HG1        -4.5520   -0.1500   -0.9940 H         1 GLU      0.023200
     41 HG2        -3.7800    0.4930    0.4350 H         1 GLU      0.023200
@<TRIPOS>BOND
     1    1    2 ar  
     2    1    9 ar  
     3    2    3 1   
     4    2    4 ar  
     5    4    5 1   
     6    4    6 ar  
     7    6    7 1   
     8    6    8 ar  
     9    7   16 1   
    10    8    9 ar  
    11    8   10 1   
    12   10   11 1   
    13   11   12 1   
    14   12   13 1   
    15   12   14 1   
    16   12   15 1   
    17   16   17 1   
    18   17   18 1   
    19   17   23 1   
    20   18   19 1   
    21   19   20 1   
    22   20   21 1   
    23   20   22 1   
    24   23   24 1   
    25   23   25 1   
    26    3   26 1   
    27    3   27 1   
    28    3   28 1   
    29    5   29 1   
    30    7   30 1   
    31    7   31 1   
    32    9   32 1   
    33   10   33 1   
    34   10   34 1   
    35   16   35 1   
    36   16   36 1   
    37   17   37 1   
    38   18   38 1   
    39   18   39 1   
    40   19   40 1   
    41   19   41 1   
@<TRIPOS>SUBSTRUCTURE
     1 UNK         1 TEMP              0 ****  ****    0 ROOT
