@<TRIPOS>MOLECULE
CFF
   24    25     1     0     0
SMALL
bcc


@<TRIPOS>ATOM
      1 N           1.0470   -0.0000   -1.3120 N.        1 LIG     -0.483400
      2 C          -0.2080   -0.0000   -1.7900 C.        1 LIG      0.814500
      3 C1          2.1760    0.0000   -2.2460 C.3       1 LIG      0.080300
      4 C2          1.2850   -0.0010    0.0160 C.        1 LIG      0.765100
      5 N1         -1.2760   -0.0000   -0.9710 N.        1 LIG     -0.417300
      6 O          -0.3840    0.0000   -2.9930 O.3       1 LIG     -0.637500
      7 C3         -2.6290   -0.0000   -1.5330 C.3       1 LIG      0.090300
      8 C4         -1.0980   -0.0000    0.4020 C.c       1 LIG      0.485200
      9 C5          0.1930    0.0050    0.9110 C.d       1 LIG     -0.350200
     10 N2         -1.9340   -0.0000    1.4440 N.c       1 LIG     -0.685000
     11 O1          2.4280   -0.0000    0.4370 O.3       1 LIG     -0.633500
     12 N3          0.0680   -0.0000    2.2860 N.a       1 LIG     -0.148900
     13 C6         -1.2510   -0.0000    2.5600 C.d       1 LIG      0.443400
     14 C7          1.1610   -0.0000    3.2610 C.3       1 LIG      0.009600
     15 H           1.8080    0.0010   -3.2510 H         1 LIG      0.063367
     16 H1          2.7720   -0.8740   -2.0850 H         1 LIG      0.063367
     17 H2          2.7730    0.8730   -2.0840 H         1 LIG      0.063367
     18 H3         -2.5710    0.0000   -2.6010 H         1 LIG      0.063033
     19 H4         -3.1520    0.8740   -1.2040 H         1 LIG      0.063033
     20 H5         -3.1520   -0.8740   -1.2040 H         1 LIG      0.063033
     21 H6         -1.6610    0.0000    3.5070 H         1 LIG      0.071100
     22 H7          2.0990    0.0000    2.7460 H         1 LIG      0.071700
     23 H8          1.0910   -0.8740    3.8750 H         1 LIG      0.071700
     24 H9          1.0910    0.8740    3.8750 H         1 LIG      0.071700
@<TRIPOS>BOND
     1    1    2 1   
     2    1    3 1   
     3    1    4 1   
     4    2    5 1   
     5    2    6 2   
     6    4    9 1   
     7    4   11 2   
     8    5    7 1   
     9    5    8 1   
    10    8    9 ar  
    11    8   10 ar  
    12    9   12 ar  
    13   10   13 ar  
    14   12   13 ar  
    15   12   14 1   
    16    3   15 1   
    17    3   16 1   
    18    3   17 1   
    19    7   18 1   
    20    7   19 1   
    21    7   20 1   
    22   13   21 1   
    23   14   22 1   
    24   14   23 1   
    25   14   24 1   
@<TRIPOS>SUBSTRUCTURE
     1 LIG         1 TEMP              0 ****  ****    0 ROOT
