@<TRIPOS>MOLECULE
BXN
   68    71     1     0     0
SMALL
bcc


@<TRIPOS>ATOM
      1 C          -3.7040   -0.4950   -2.5420 C.3       1 LIG      0.201100
      2 C1         -1.1950   -2.2420   -0.1230 C.a       1 LIG      0.128900
      3 C2          0.1360   -2.3240    0.2450 C.a       1 LIG     -0.161000
      4 C3          2.8950   -0.6220    0.8250 C.3       1 LIG     -0.110400
      5 C4          4.3670   -0.7120    1.2310 C.3       1 LIG      0.110800
      6 C5          5.8960    0.9290   -1.7820 C.3       1 LIG      0.081800
      7 C6          8.1380   -0.0090   -1.4820 C.3       1 LIG      0.110800
      8 C7          8.8000    1.2400    0.5220 C.3       1 LIG     -0.102400
      9 C8         -6.6590    1.1950   -0.8550 C.3       1 LIG     -0.146400
     10 C9         -5.3200    1.8610   -0.6630 C.c       1 LIG      0.350600
     11 C10        -3.1020    4.6170    0.0650 C.3       1 LIG      0.038600
     12 C11        -3.1150    2.1740   -0.5470 C.d       1 LIG     -0.091600
     13 C12        -1.6250    1.9530   -0.5780 C.3       1 LIG     -0.030800
     14 C13        -4.0690    1.2430   -0.7990 C.c       1 LIG     -0.091700
     15 C14        -2.0380   -1.3550    0.5230 C.a       1 LIG     -0.265500
     16 C15         0.6240   -1.5190    1.2570 C.a       1 LIG     -0.059300
     17 C16         2.0750   -1.6090    1.6570 C.3       1 LIG     -0.029100
     18 C17         5.1810   -0.1630   -0.9850 C.3       1 LIG      0.085800
     19 C18         9.3440    0.2830   -0.5600 C.3       1 LIG     -0.111400
     20 C19         7.2990    1.4200    0.1760 C.3       1 LIG      0.110500
     21 C20         6.5230    0.3500    0.9490 C.3       1 LIG      0.083800
     22 C21        -0.2170   -0.6330    1.9030 C.a       1 LIG     -0.161000
     23 C22        -1.5480   -0.5500    1.5360 C.a       1 LIG      0.128900
     24 N          -5.1280    3.1160   -0.3470 N.d       1 LIG     -0.493800
     25 N1         -3.7480    3.3440   -0.2640 N.a       1 LIG      0.100400
     26 N2         -3.8430   -0.1050   -1.1370 N.h       1 LIG     -0.649900
     27 N3          5.1550    0.2360    0.4310 N.4       1 LIG     -0.693400
     28 N4          7.2400    1.1460   -1.2750 N.4       1 LIG     -0.704400
     29 O          -4.0600   -2.4930   -0.5520 O.3       1 LIG     -0.622300
     30 O1         -4.4280   -0.7270    1.1790 O.3       1 LIG     -0.622300
     31 S          -3.7330   -1.2500    0.0550 S.y       1 LIG      1.481200
     32 Cl         -1.8070   -3.2480   -1.3990 C.l       1 LIG     -0.020400
     33 Cl1        -2.6050    0.5640    2.3460 C.l       1 LIG     -0.020400
     34 H          -3.8030    0.3700   -3.1640 H         1 LIG      0.057700
     35 H1         -4.4660   -1.2030   -2.7930 H         1 LIG      0.057700
     36 H2         -2.7420   -0.9370   -2.6960 H         1 LIG      0.057700
     37 H3          0.7640   -2.9860   -0.2360 H         1 LIG      0.144000
     38 H4          2.7960   -0.8620   -0.2130 H         1 LIG      0.074700
     39 H5          2.5380    0.3720    0.9970 H         1 LIG      0.074700
     40 H6          4.4660   -0.4710    2.2690 H         1 LIG      0.116700
     41 H7          4.7240   -1.7060    1.0600 H         1 LIG      0.116700
     42 H8          5.3410    1.8400   -1.7040 H         1 LIG      0.143700
     43 H9          5.9620    0.6180   -2.8040 H         1 LIG      0.143700
     44 H10         7.6550   -0.9210   -1.1990 H         1 LIG      0.119200
     45 H11         8.4230   -0.1300   -2.5060 H         1 LIG      0.119200
     46 H12         9.3100    2.1800    0.4850 H         1 LIG      0.116700
     47 H13         8.9430    0.8540    1.5100 H         1 LIG      0.116700
     48 H14        -6.5120    0.1660   -1.1080 H         1 LIG      0.070033
     49 H15        -7.1910    1.6840   -1.6440 H         1 LIG      0.070033
     50 H16        -7.2240    1.2620    0.0510 H         1 LIG      0.070033
     51 H17        -3.8500    5.3620    0.2400 H         1 LIG      0.061033
     52 H18        -2.4790    4.9220   -0.7500 H         1 LIG      0.061033
     53 H19        -2.5060    4.4970    0.9450 H         1 LIG      0.061033
     54 H20        -1.4210    0.9330   -0.8300 H         1 LIG      0.050033
     55 H21        -1.2120    2.1720    0.3850 H         1 LIG      0.050033
     56 H22        -1.1840    2.5970   -1.3100 H         1 LIG      0.050033
     57 H23         2.4320   -2.6030    1.4850 H         1 LIG      0.071700
     58 H24         2.1750   -1.3690    2.6950 H         1 LIG      0.071700
     59 H25         5.7060   -1.0890   -1.0900 H         1 LIG      0.144200
     60 H26         4.1830   -0.2900   -1.3490 H         1 LIG      0.144200
     61 H27         9.7040   -0.6210   -0.1150 H         1 LIG      0.118700
     62 H28        10.1650    0.7100   -1.0970 H         1 LIG      0.118700
     63 H29         6.8950    2.3800    0.4200 H         1 LIG      0.132700
     64 H30         6.4870    0.6190    1.9840 H         1 LIG      0.141700
     65 H31         7.0180   -0.5910    0.8310 H         1 LIG      0.141700
     66 H32         0.1480   -0.0330    2.6590 H         1 LIG      0.144000
     67 H33         4.7050    1.1490    0.5020 H         1 LIG      0.459800
     68 H34         7.5420    1.9590   -1.8120 H         1 LIG      0.481800
@<TRIPOS>BOND
     1    1   26 1   
     2    2    3 ar  
     3    3   16 ar  
     4    5   27 1   
     5    5    4 1   
     6    6   18 1   
     7    8   19 1   
     8    9   10 1   
     9   10   14 ar  
    10   12   13 1   
    11   14   12 ar  
    12   14   26 1   
    13   15   23 ar  
    14   15    2 ar  
    15   16   17 1   
    16   17    4 1   
    17   19    7 1   
    18   20   21 1   
    19   20    8 1   
    20   20   28 1   
    21   21   27 1   
    22   22   16 ar  
    23   23   22 ar  
    24   24   10 ar  
    25   24   25 ar  
    26   25   11 1   
    27   25   12 ar  
    28   26   31 1   
    29   27   18 1   
    30   28    6 1   
    31   28    7 1   
    32   29   31 2   
    33   31   30 2   
    34   31   15 1   
    35   32    2 1   
    36   33   23 1   
    37    1   34 1   
    38    1   35 1   
    39    1   36 1   
    40    3   37 1   
    41    4   38 1   
    42    4   39 1   
    43    5   40 1   
    44    5   41 1   
    45    6   42 1   
    46    6   43 1   
    47    7   44 1   
    48    7   45 1   
    49    8   46 1   
    50    8   47 1   
    51    9   48 1   
    52    9   49 1   
    53    9   50 1   
    54   11   51 1   
    55   11   52 1   
    56   11   53 1   
    57   13   54 1   
    58   13   55 1   
    59   13   56 1   
    60   17   57 1   
    61   17   58 1   
    62   18   59 1   
    63   18   60 1   
    64   19   61 1   
    65   19   62 1   
    66   20   63 1   
    67   21   64 1   
    68   21   65 1   
    69   22   66 1   
    70   27   67 1   
    71   28   68 1   
@<TRIPOS>SUBSTRUCTURE
     1 LIG         1 TEMP              0 ****  ****    0 ROOT
