@<TRIPOS>MOLECULE
SXO
   66    65     1     0     0
SMALL
bcc


@<TRIPOS>ATOM
      1 O           8.8240    2.1540   -1.2660 O.3       1 LIG     -0.922500
      2 P           7.4860    2.5910   -0.4850 P.5       1 LIG      1.346900
      3 O1          7.7410    3.9850    0.2780 O.3       1 LIG     -0.922500
      4 O2          6.3800    2.7540   -1.4550 O.3       1 LIG     -0.922500
      5 O3          7.0950    1.4550    0.5870 O.2       1 LIG     -0.560200
      6 C           6.7080    0.1320    0.2130 C.3       1 LIG      0.228400
      7 C1          6.4060   -0.6860    1.4710 C.3       1 LIG     -0.111000
      8 C2          7.6570   -0.7500    2.3500 C.3       1 LIG     -0.091100
      9 C3          5.2690   -0.0220    2.2510 C.3       1 LIG     -0.091100
     10 C4          5.9910   -2.1030    1.0710 C.3       1 LIG      0.093100
     11 O4          7.0960   -2.7660    0.4530 O.h       1 LIG     -0.615800
     12 C5          4.8400   -2.0340    0.1000 C.        1 LIG      0.621100
     13 O5          5.0230   -2.2710   -1.0750 O.3       1 LIG     -0.695100
     14 N           3.6080   -1.7090    0.5380 N.        1 LIG     -0.540900
     15 C6          2.4700   -1.7470   -0.3830 C.3       1 LIG      0.112000
     16 C7          1.1970   -1.3370    0.3610 C.3       1 LIG     -0.174400
     17 C8          0.0260   -1.3770   -0.5860 C.        1 LIG      0.659100
     18 O6          0.1930   -1.7010   -1.7430 O.3       1 LIG     -0.724100
     19 N1         -1.2060   -1.0520   -0.1480 N.        1 LIG     -0.540900
     20 C9         -2.3450   -1.0900   -1.0700 C.3       1 LIG      0.120000
     21 C10        -3.6170   -0.6800   -0.3250 C.3       1 LIG     -0.069300
     22 S          -5.0240   -0.7280   -1.4630 S.3       1 LIG     -0.220700
     23 C11        -6.2790   -0.2410   -0.4060 C.        1 LIG      0.537700
     24 O7         -6.0300    0.0130    0.7550 O.3       1 LIG     -0.562100
     25 C12        -7.6920   -0.1260   -0.9150 C.3       1 LIG     -0.174400
     26 C13        -8.6100    0.3230    0.2230 C.3       1 LIG     -0.073400
     27 C14       -10.0450    0.4390   -0.2950 C.3       1 LIG     -0.077400
     28 C15       -10.9640    0.8880    0.8440 C.3       1 LIG     -0.079400
     29 C16       -12.3990    1.0040    0.3260 C.3       1 LIG     -0.078400
     30 C17       -13.3170    1.4540    1.4640 C.3       1 LIG     -0.081400
     31 C18       -14.7520    1.5700    0.9470 C.3       1 LIG     -0.090100
     32 H           7.5040   -0.3320   -0.3320 H         1 LIG     -0.003800
     33 H1          5.8330    0.1770   -0.4020 H         1 LIG     -0.003800
     34 H2          8.4520   -1.2140    1.8050 H         1 LIG      0.034533
     35 H3          7.4460   -1.3220    3.2290 H         1 LIG      0.034533
     36 H4          7.9470    0.2410    2.6300 H         1 LIG      0.034533
     37 H5          4.3940    0.0230    1.6370 H         1 LIG      0.034533
     38 H6          5.5600    0.9690    2.5310 H         1 LIG      0.034533
     39 H7          5.0580   -0.5940    3.1310 H         1 LIG      0.034533
     40 H8          5.6910   -2.6460    1.9420 H         1 LIG      0.064700
     41 H9          7.3680   -2.2730   -0.3370 H         1 LIG      0.418000
     42 H10         3.4730   -1.4460    1.4770 H         1 LIG      0.398500
     43 H11         2.3550   -2.7390   -0.7670 H         1 LIG      0.023700
     44 H12         2.6440   -1.0690   -1.1920 H         1 LIG      0.023700
     45 H13         1.3120   -0.3450    0.7440 H         1 LIG      0.095200
     46 H14         1.0240   -2.0140    1.1710 H         1 LIG      0.095200
     47 H15        -1.3410   -0.7890    0.7910 H         1 LIG      0.410500
     48 H16        -2.4600   -2.0820   -1.4540 H         1 LIG      0.034700
     49 H17        -2.1710   -0.4130   -1.8800 H         1 LIG      0.034700
     50 H18        -3.5020    0.3120    0.0580 H         1 LIG      0.148700
     51 H19        -3.7900   -1.3570    0.4850 H         1 LIG      0.148700
     52 H20        -8.0180   -1.0770   -1.2810 H         1 LIG      0.060200
     53 H21        -7.7280    0.5930   -1.7070 H         1 LIG      0.060200
     54 H22        -8.2850    1.2740    0.5890 H         1 LIG      0.053200
     55 H23        -8.5740   -0.3950    1.0150 H         1 LIG      0.053200
     56 H24       -10.3700   -0.5120   -0.6610 H         1 LIG      0.035200
     57 H25       -10.0810    1.1580   -1.0870 H         1 LIG      0.035200
     58 H26       -10.6390    1.8390    1.2100 H         1 LIG      0.040700
     59 H27       -10.9280    0.1690    1.6360 H         1 LIG      0.040700
     60 H28       -12.7240    0.0520   -0.0400 H         1 LIG      0.036700
     61 H29       -12.4350    1.7220   -0.4670 H         1 LIG      0.036700
     62 H30       -12.9920    2.4060    1.8290 H         1 LIG      0.038200
     63 H31       -13.2810    0.7360    2.2560 H         1 LIG      0.038200
     64 H32       -14.7890    2.2880    0.1550 H         1 LIG      0.027367
     65 H33       -15.3940    1.8850    1.7430 H         1 LIG      0.027367
     66 H34       -15.0770    0.6190    0.5810 H         1 LIG      0.027367
@<TRIPOS>BOND
     1    2    1 1   
     2    2    5 1   
     3    2    3 1   
     4    4    2 1   
     5    5    6 1   
     6    6    7 1   
     7    7   10 1   
     8    7    8 1   
     9    9    7 1   
    10   10   12 1   
    11   11   10 1   
    12   12   14 1   
    13   13   12 2   
    14   14   15 1   
    15   15   16 1   
    16   17   16 1   
    17   17   18 2   
    18   19   17 1   
    19   20   19 1   
    20   21   20 1   
    21   22   21 1   
    22   23   22 1   
    23   23   24 2   
    24   25   23 1   
    25   26   25 1   
    26   26   27 1   
    27   28   27 1   
    28   28   29 1   
    29   29   30 1   
    30   31   30 1   
    31    6   32 1   
    32    6   33 1   
    33    8   34 1   
    34    8   35 1   
    35    8   36 1   
    36    9   37 1   
    37    9   38 1   
    38    9   39 1   
    39   10   40 1   
    40   11   41 1   
    41   14   42 1   
    42   15   43 1   
    43   15   44 1   
    44   16   45 1   
    45   16   46 1   
    46   19   47 1   
    47   20   48 1   
    48   20   49 1   
    49   21   50 1   
    50   21   51 1   
    51   25   52 1   
    52   25   53 1   
    53   26   54 1   
    54   26   55 1   
    55   27   56 1   
    56   27   57 1   
    57   28   58 1   
    58   28   59 1   
    59   29   60 1   
    60   29   61 1   
    61   30   62 1   
    62   30   63 1   
    63   31   64 1   
    64   31   65 1   
    65   31   66 1   
@<TRIPOS>SUBSTRUCTURE
     1 LIG         1 TEMP              0 ****  ****    0 ROOT
