@<TRIPOS>MOLECULE
IDU
   25    25     1     0     0
SMALL
bcc


@<TRIPOS>ATOM
      1 O           2.6220   -1.8110    0.8630 O.h       1 LIG     -0.599800
      2 C          -0.0580    0.4150   -1.4400 C.3       1 LIG      0.327900
      3 C1         -0.6650   -0.6790   -0.5580 C.3       1 LIG      0.151100
      4 C2          0.4330   -1.6690   -0.1590 C.3       1 LIG      0.064100
      5 C3          1.5590   -0.9090    0.5500 C.3       1 LIG      0.089100
      6 C4          2.0790    0.1940   -0.3750 C.3       1 LIG      0.034100
      7 C5          3.1460    0.9850    0.3370 C.        1 LIG      0.943600
      8 O1         -1.2260   -0.0890    0.6160 O.2       1 LIG     -0.604500
      9 O2          0.9500   -2.3070   -1.3280 O.h       1 LIG     -0.621800
     10 O3          1.0020    1.0620   -0.7330 O.2       1 LIG     -0.413600
     11 O4          2.9610    2.1500    0.5990 O.3       1 LIG     -0.840300
     12 O5          4.3020    0.3950    0.6810 O.3       1 LIG     -0.840300
     13 S          -2.7160    0.2030    0.5110 S.6       1 LIG      1.697300
     14 O6         -3.0590    0.9580    1.6650 O.3       1 LIG     -0.757533
     15 O7         -2.9420    0.6620   -0.8150 O.3       1 LIG     -0.757533
     16 O8         -3.4450   -1.1270    0.6350 O.3       1 LIG     -0.757533
     17 O9         -1.0650    1.3740   -1.7710 O.h       1 LIG     -0.611800
     18 H           2.2910   -2.5100    1.4490 H         1 LIG      0.382000
     19 H1          0.3260   -0.0220   -2.3380 H         1 LIG      0.035700
     20 H2         -1.4330   -1.1920   -1.0980 H         1 LIG      0.050700
     21 H3          0.0280   -2.4110    0.4980 H         1 LIG      0.092700
     22 H4          1.1870   -0.4750    1.4550 H         1 LIG      0.086700
     23 H5          2.4910   -0.2460   -1.2590 H         1 LIG      0.017700
     24 H6          1.3180   -1.6370   -1.9260 H         1 LIG      0.397000
     25 H7         -1.4140    1.7710   -0.9570 H         1 LIG      0.435000
@<TRIPOS>BOND
     1    1    5 1   
     2    2    3 1   
     3    2   10 1   
     4    2   17 1   
     5    3    4 1   
     6    3    8 1   
     7    4    5 1   
     8    4    9 1   
     9    5    6 1   
    10    6    7 1   
    11    6   10 1   
    12    7   11 1   
    13    7   12 1   
    14    8   13 1   
    15   13   14 1   
    16   13   15 1   
    17   13   16 1   
    18    1   18 1   
    19    2   19 1   
    20    3   20 1   
    21    4   21 1   
    22    5   22 1   
    23    6   23 1   
    24    9   24 1   
    25   17   25 1   
@<TRIPOS>SUBSTRUCTURE
     1 LIG         1 TEMP              0 ****  ****    0 ROOT
