@<TRIPOS>MOLECULE
FIP
   29    30     1     0     0
SMALL
bcc


@<TRIPOS>ATOM
      1 C          -1.2610    0.4500   -1.5930 C.c       1 LIG     -0.342400
      2 C1         -0.3130    0.2160   -2.6850 C.a       1 LIG      0.001200
      3 C2         -1.0730   -0.2760   -3.7610 C.a       1 LIG     -0.148200
      4 C3          1.0680    0.3680   -2.8180 C.a       1 LIG     -0.188000
      5 C4         -2.4770    0.1110   -2.0500 C.d       1 LIG     -0.207100
      6 N          -2.3850   -0.3250   -3.3430 N.a       1 LIG     -0.204400
      7 C5         -0.4380   -0.5980   -4.9560 C.a       1 LIG     -0.135000
      8 C6          1.6770    0.0430   -4.0110 C.a       1 LIG      0.073900
      9 C7          0.9240   -0.4380   -5.0750 C.a       1 LIG     -0.253000
     10 F           3.0130    0.1930   -4.1460 F.        1 LIG     -0.196900
     11 C8         -0.9350    0.9770   -0.2190 C.3       1 LIG      0.043800
     12 C9         -0.6240   -0.1930    0.7150 C.3       1 LIG     -0.098400
     13 C10        -0.2920    0.3420    2.1090 C.3       1 LIG      0.187400
     14 P           0.3350   -0.1180    4.4240 P.5       1 LIG      1.343900
     15 O           1.5030    0.7830    4.3050 O.3       1 LIG     -0.730833
     16 O1          0.6730   -1.3000    5.4630 O.3       1 LIG     -0.730833
     17 O2         -0.9350    0.7160    4.9550 O.3       1 LIG     -0.730833
     18 O3         -0.0020   -0.7510    2.9820 O.2       1 LIG     -0.585200
     19 H           1.6300    0.7220   -2.0280 H         1 LIG      0.130000
     20 H1         -3.3520    0.1710   -1.5060 H         1 LIG      0.219000
     21 H2         -3.1430   -0.6280   -3.8930 H         1 LIG      0.246700
     22 H3         -0.9880   -0.9570   -5.7530 H         1 LIG      0.087000
     23 H4          1.3910   -0.6780   -5.9640 H         1 LIG      0.096000
     24 H5         -1.7720    1.5240    0.1610 H         1 LIG      0.009700
     25 H6         -0.0840    1.6230   -0.2770 H         1 LIG      0.009700
     26 H7          0.2130   -0.7410    0.3340 H         1 LIG      0.040200
     27 H8         -1.4750   -0.8380    0.7740 H         1 LIG      0.040200
     28 H9         -1.1290    0.8900    2.4890 H         1 LIG      0.011200
     29 H10         0.5600    0.9870    2.0500 H         1 LIG      0.011200
@<TRIPOS>BOND
     1    1    2 1   
     2    1    5 2   
     3    1   11 1   
     4    2    3 ar  
     5    2    4 ar  
     6    3    6 1   
     7    3    7 ar  
     8    4    8 ar  
     9    5    6 1   
    10    7    9 ar  
    11    8    9 ar  
    12    8   10 1   
    13   11   12 1   
    14   12   13 1   
    15   13   18 1   
    16   14   15 1   
    17   14   16 1   
    18   14   17 1   
    19   14   18 1   
    20    4   19 1   
    21    5   20 1   
    22    6   21 1   
    23    7   22 1   
    24    9   23 1   
    25   11   24 1   
    26   11   25 1   
    27   12   26 1   
    28   12   27 1   
    29   13   28 1   
    30   13   29 1   
@<TRIPOS>SUBSTRUCTURE
     1 LIG         1 TEMP              0 ****  ****    0 ROOT
