@<TRIPOS>MOLECULE
CSF
   70    72     1     0     0
SMALL
bcc


@<TRIPOS>ATOM
      1 C          -0.5010   -1.0020    4.1620 C.3       1 LIG      0.050700
      2 C1         -1.8620   -1.3560    3.5520 C.3       1 LIG      0.111100
      3 C2         -1.5740    0.6750    2.1350 C.3       1 LIG      0.277600
      4 O          -0.3840    1.0210    2.8410 O.2       1 LIG     -0.441600
      5 C3          0.3050   -0.1880    3.1480 C.3       1 LIG      0.112100
      6 C4         -2.5330   -0.0660    3.0680 C.3       1 LIG      0.113600
      7 O1         -2.6810   -1.9860    4.5390 O.h       1 LIG     -0.608800
      8 N           0.2230   -2.2320    4.4910 N.        1 LIG     -0.529900
      9 C5          1.6780    0.1430    3.7360 C.3       1 LIG      0.087100
     10 C6          1.4990    0.9540    5.0220 C.3       1 LIG      0.096100
     11 C7          2.8630    1.1750    5.6790 C.3       1 LIG      0.140400
     12 O2          2.6960    1.9320    6.8800 O.h       1 LIG     -0.632800
     13 O3          0.9110    2.2180    4.7090 O.h       1 LIG     -0.650800
     14 O4          2.3750   -1.0680    4.0310 O.h       1 LIG     -0.619800
     15 C8         -2.2380    1.9290    1.6270 C.        1 LIG      0.946600
     16 O5         -3.3780    1.8470    0.9230 O.3       1 LIG     -0.828800
     17 O6         -1.7440    3.0090    1.8540 O.3       1 LIG     -0.828800
     18 O7         -1.2420   -0.1650    1.0280 O.2       1 LIG     -0.594200
     19 O8          0.8830    1.1890    0.8980 O.3       1 LIG     -0.856500
     20 N1          0.1520   -0.8170   -6.1800 N.        1 LIG     -0.375000
     21 C9         -0.7140    0.2110   -6.1880 C.        1 LIG      0.831900
     22 N2         -1.7100    0.2640   -7.0710 N.c       1 LIG     -0.751100
     23 C10        -1.8800   -0.7050   -7.9590 C.d       1 LIG      0.721500
     24 C11        -0.9920   -1.8010   -7.9730 C.d       1 LIG     -0.441600
     25 C12         0.0180   -1.8370   -7.0730 C.c       1 LIG      0.089600
     26 C13         2.7190    0.5290   -3.8790 C.3       1 LIG      0.099100
     27 C14         2.1000    0.4420   -5.2990 C.3       1 LIG      0.109100
     28 C15         1.2410   -0.8440   -5.2010 C.3       1 LIG      0.252500
     29 O9          0.7180   -0.7980   -3.8560 O.2       1 LIG     -0.427600
     30 C16         1.7790   -0.3270   -3.0080 C.3       1 LIG      0.068100
     31 P          -0.2430    0.6750    0.0870 P.5       1 LIG      1.506800
     32 O10         0.3250   -0.2770   -1.0780 O.2       1 LIG     -0.575200
     33 C17         1.2010    0.5230   -1.8750 C.3       1 LIG      0.168400
     34 O11         4.0420   -0.0090   -3.8770 O.h       1 LIG     -0.652800
     35 O12         3.1180    0.3010   -6.2900 O.h       1 LIG     -0.602800
     36 N3         -2.9150   -0.6430   -8.8630 N.h       1 LIG     -0.902800
     37 O13        -0.5790    1.1160   -5.3810 O.3       1 LIG     -0.663500
     38 O14        -1.0380    1.9110   -0.5690 O.3       1 LIG     -0.856500
     39 C18         0.0810   -2.7920    5.7090 C.        1 LIG      0.650100
     40 O15        -0.6460   -2.2780    6.5320 O.3       1 LIG     -0.680100
     41 C19         0.8260   -4.0570    6.0480 C.3       1 LIG     -0.172100
     42 F          -2.8390    0.7430    4.1680 F.        1 LIG     -0.241300
     43 H          -0.6430   -0.4280    5.0530 H         1 LIG      0.070700
     44 H1         -1.7310   -2.0280    2.7300 H         1 LIG      0.112700
     45 H2          0.4260   -0.7610    2.2530 H         1 LIG      0.085700
     46 H3         -3.4350   -0.3010    2.5430 H         1 LIG      0.078700
     47 H4         -2.8050   -1.3830    5.2890 H         1 LIG      0.400000
     48 H5          0.8130   -2.6500    3.8230 H         1 LIG      0.375500
     49 H6          2.2410    0.7150    3.0280 H         1 LIG      0.113700
     50 H7          0.8610    0.4200    5.6950 H         1 LIG      0.031700
     51 H8          3.5010    1.7100    5.0060 H         1 LIG      0.044700
     52 H9          3.3040    0.2290    5.9120 H         1 LIG      0.044700
     53 H10         2.2960    2.7900    6.6680 H         1 LIG      0.420000
     54 H11         1.4900    2.7010    4.0990 H         1 LIG      0.482000
     55 H12         1.8650   -1.5860    4.6730 H         1 LIG      0.415000
     56 H13        -1.1110   -2.5630   -8.6590 H         1 LIG      0.170000
     57 H14         0.6800   -2.6290   -7.0630 H         1 LIG      0.241000
     58 H15         2.8030    1.5350   -3.5240 H         1 LIG      0.133700
     59 H16         1.5440    1.3110   -5.5820 H         1 LIG      0.088700
     60 H17         1.7990   -1.7340   -5.4030 H         1 LIG      0.117700
     61 H18         2.3090   -1.1480   -2.5740 H         1 LIG      0.077700
     62 H19         0.6550    1.3450   -2.2890 H         1 LIG      0.054200
     63 H20         1.9980    0.8940   -1.2650 H         1 LIG      0.054200
     64 H21         4.0190   -0.9260   -4.1930 H         1 LIG      0.486000
     65 H22         3.6610   -0.4770   -6.0880 H         1 LIG      0.422000
     66 H23        -3.5340    0.1230   -8.8510 H         1 LIG      0.403300
     67 H24        -3.0370   -1.3650   -9.5220 H         1 LIG      0.403300
     68 H25         1.4130   -4.3620    5.2070 H         1 LIG      0.058700
     69 H26         0.1260   -4.8290    6.2930 H         1 LIG      0.058700
     70 H27         1.4680   -3.8790    6.8850 H         1 LIG      0.058700
@<TRIPOS>BOND
     1    1    2 1   
     2    1    5 1   
     3    1    8 1   
     4    2    6 1   
     5    2    7 1   
     6    3    4 1   
     7    3    6 1   
     8    3   15 1   
     9    3   18 1   
    10    4    5 1   
    11    5    9 1   
    12    6   42 1   
    13    8   39 1   
    14    9   10 1   
    15    9   14 1   
    16   10   11 1   
    17   10   13 1   
    18   11   12 1   
    19   15   16 1   
    20   15   17 1   
    21   18   31 1   
    22   19   31 1   
    23   20   21 1   
    24   20   25 1   
    25   20   28 1   
    26   21   22 1   
    27   21   37 2   
    28   22   23 2   
    29   23   24 1   
    30   23   36 1   
    31   24   25 2   
    32   26   27 1   
    33   26   30 1   
    34   26   34 1   
    35   27   28 1   
    36   27   35 1   
    37   28   29 1   
    38   29   30 1   
    39   30   33 1   
    40   31   32 1   
    41   31   38 1   
    42   32   33 1   
    43   39   40 2   
    44   39   41 1   
    45    1   43 1   
    46    2   44 1   
    47    5   45 1   
    48    6   46 1   
    49    7   47 1   
    50    8   48 1   
    51    9   49 1   
    52   10   50 1   
    53   11   51 1   
    54   11   52 1   
    55   12   53 1   
    56   13   54 1   
    57   14   55 1   
    58   24   56 1   
    59   25   57 1   
    60   26   58 1   
    61   27   59 1   
    62   28   60 1   
    63   30   61 1   
    64   33   62 1   
    65   33   63 1   
    66   34   64 1   
    67   35   65 1   
    68   36   66 1   
    69   36   67 1   
    70   41   68 1   
    71   41   69 1   
    72   41   70 1   
@<TRIPOS>SUBSTRUCTURE
     1 LIG         1 TEMP              0 ****  ****    0 ROOT
