@<TRIPOS>MOLECULE
CTX
   58    60     1     0     0
SMALL
bcc


@<TRIPOS>ATOM
      1 C          -4.5290   -0.1980    1.4990 C.3       1 LIG     -0.089100
      2 C1         -4.1700   -0.9660    0.2260 C.3       1 LIG     -0.052200
      3 O           3.5340    0.3180   -0.8340 O.2       1 LIG     -0.354900
      4 C2          4.1140   -0.1990    0.3650 C.3       1 LIG      0.106400
      5 C3          5.6390   -0.2040    0.2330 C.3       1 LIG      0.068800
      6 C4          2.1870    0.2990   -0.6570 C.a       1 LIG      0.041100
      7 C5          1.3490    0.7490   -1.6700 C.a       1 LIG     -0.147000
      8 C6         -0.0180    0.7310   -1.4950 C.a       1 LIG     -0.092000
      9 C7          0.2850   -0.1860    0.7190 C.a       1 LIG     -0.092000
     10 C8          1.6510   -0.1700    0.5350 C.a       1 LIG     -0.147000
     11 C9         -0.5600    0.2600   -0.2980 C.a       1 LIG     -0.014800
     12 C10        -2.0270    0.2380   -0.1070 C.e       1 LIG     -0.040400
     13 C11        -2.7860    1.5080   -0.0650 C.a       1 LIG     -0.061800
     14 C12        -2.5720    2.4180    0.9700 C.a       1 LIG     -0.121500
     15 C13        -3.2840    3.6000    1.0030 C.a       1 LIG     -0.126500
     16 C14        -4.2070    3.8830    0.0130 C.a       1 LIG     -0.120000
     17 C15        -4.4250    2.9840   -1.0160 C.a       1 LIG     -0.126500
     18 C16        -3.7160    1.8010   -1.0640 C.a       1 LIG     -0.121500
     19 C17        -1.1440   -4.2040    1.0760 C.a       1 LIG     -0.130000
     20 C18        -0.5000   -4.5830   -0.0890 C.a       1 LIG     -0.127000
     21 C19        -0.5630   -3.7810   -1.2150 C.a       1 LIG     -0.130000
     22 C20        -1.2720   -2.5990   -1.1860 C.a       1 LIG     -0.122500
     23 C21        -1.9210   -2.2060   -0.0110 C.a       1 LIG     -0.066800
     24 C22        -1.8530   -3.0220    1.1240 C.a       1 LIG     -0.122500
     25 C23        -2.6760   -0.9440    0.0310 C.f       1 LIG     -0.005400
     26 N           6.1260    1.1780    0.1290 N.4       1 LIG     -0.676400
     27 C24         6.0700    1.7480    1.4820 C.3       1 LIG      0.084100
     28 C25         7.5470    1.0980   -0.2370 C.3       1 LIG      0.084100
     29 H          -5.5900   -0.2130    1.6380 H         1 LIG      0.041033
     30 H1         -4.1960    0.8150    1.4110 H         1 LIG      0.041033
     31 H2         -4.0530   -0.6580    2.3390 H         1 LIG      0.041033
     32 H3         -4.6460   -0.5060   -0.6150 H         1 LIG      0.060700
     33 H4         -4.5030   -1.9790    0.3140 H         1 LIG      0.060700
     34 H5          3.7670   -1.1980    0.5270 H         1 LIG      0.094200
     35 H6          3.8300    0.4160    1.1930 H         1 LIG      0.094200
     36 H7          5.9190   -0.7480   -0.6450 H         1 LIG      0.108200
     37 H8          6.0700   -0.6700    1.0940 H         1 LIG      0.108200
     38 H9          1.7510    1.0970   -2.5540 H         1 LIG      0.134500
     39 H10        -0.6400    1.0650   -2.2480 H         1 LIG      0.158000
     40 H11        -0.1120   -0.5270    1.6080 H         1 LIG      0.158000
     41 H12         2.2760   -0.5070    1.2840 H         1 LIG      0.134500
     42 H13        -1.8830    2.2080    1.7090 H         1 LIG      0.134000
     43 H14        -3.1270    4.2740    1.7680 H         1 LIG      0.139000
     44 H15        -4.7360    4.7690    0.0420 H         1 LIG      0.140000
     45 H16        -5.1190    3.1990   -1.7490 H         1 LIG      0.139000
     46 H17        -3.8730    1.1350   -1.8360 H         1 LIG      0.134000
     47 H18        -1.0930   -4.8080    1.9110 H         1 LIG      0.136500
     48 H19         0.0300   -5.4680   -0.1180 H         1 LIG      0.138000
     49 H20        -0.0780   -4.0690   -2.0790 H         1 LIG      0.136500
     50 H21        -1.3240   -2.0060   -2.0290 H         1 LIG      0.137000
     51 H22        -2.3320   -2.7400    1.9940 H         1 LIG      0.137000
     52 H23         5.5870    1.7260   -0.5410 H         1 LIG      0.471800
     53 H24         6.6480    1.1420    2.1480 H         1 LIG      0.104533
     54 H25         5.0540    1.7760    1.8150 H         1 LIG      0.104533
     55 H26         6.4680    2.7410    1.4670 H         1 LIG      0.104533
     56 H27         8.0710    0.5160    0.4920 H         1 LIG      0.104533
     57 H28         7.9620    2.0830   -0.2720 H         1 LIG      0.104533
     58 H29         7.6420    0.6370   -1.1980 H         1 LIG      0.104533
@<TRIPOS>BOND
     1    1    2 1   
     2    2   25 1   
     3    3    4 1   
     4    3    6 1   
     5    4    5 1   
     6    5   26 1   
     7    6    7 ar  
     8    6   10 ar  
     9    7    8 ar  
    10    8   11 ar  
    11    9   10 ar  
    12    9   11 ar  
    13   11   12 1   
    14   12   13 1   
    15   12   25 2   
    16   13   14 ar  
    17   13   18 ar  
    18   14   15 ar  
    19   15   16 ar  
    20   16   17 ar  
    21   17   18 ar  
    22   19   20 ar  
    23   19   24 ar  
    24   20   21 ar  
    25   21   22 ar  
    26   22   23 ar  
    27   23   24 ar  
    28   23   25 1   
    29   26   27 1   
    30   26   28 1   
    31    1   29 1   
    32    1   30 1   
    33    1   31 1   
    34    2   32 1   
    35    2   33 1   
    36    4   34 1   
    37    4   35 1   
    38    5   36 1   
    39    5   37 1   
    40    7   38 1   
    41    8   39 1   
    42    9   40 1   
    43   10   41 1   
    44   14   42 1   
    45   15   43 1   
    46   16   44 1   
    47   17   45 1   
    48   18   46 1   
    49   19   47 1   
    50   20   48 1   
    51   21   49 1   
    52   22   50 1   
    53   24   51 1   
    54   26   52 1   
    55   27   53 1   
    56   27   54 1   
    57   27   55 1   
    58   28   56 1   
    59   28   57 1   
    60   28   58 1   
@<TRIPOS>SUBSTRUCTURE
     1 LIG         1 TEMP              0 ****  ****    0 ROOT
