@<TRIPOS>MOLECULE
P2H
   39    40     1     0     0
SMALL
bcc


@<TRIPOS>ATOM
      1 C          -0.9240    0.1270   -1.3060 c3        1 LIG     -0.022700
      2 C1         -1.6310    0.3750    0.0280 c3        1 LIG     -0.278600
      3 P          -2.1550   -1.2170    0.7440 p5        1 LIG      1.583300
      4 O          -0.8630   -2.1470    0.9870 oh        1 LIG     -0.786900
      5 O1         -2.8990   -0.9560    2.1470 oh        1 LIG     -0.786900
      6 N           0.3230   -0.6050   -1.0680 na        1 LIG      0.033900
      7 O2         -3.0830   -1.8960   -0.1880 o         1 LIG     -0.819800
      8 C2          0.3360   -1.9150   -1.2200 ca        1 LIG     -0.027300
      9 O3         -0.7350    1.0310    0.9280 oh        1 LIG     -0.582800
     10 C3          1.4910   -2.6460   -1.0060 ca        1 LIG     -0.149000
     11 P1         -3.0940    1.4280   -0.2470 p5        1 LIG      1.583300
     12 C4          2.6480   -1.9880   -0.6270 ca        1 LIG     -0.017000
     13 O4         -2.6480    2.7820   -0.9950 oh        1 LIG     -0.786900
     14 C5          2.6020   -0.5990   -0.4750 cp        1 LIG     -0.018000
     15 O5         -4.1600    0.6380   -1.1590 oh        1 LIG     -0.786900
     16 C6          1.4010    0.0650   -0.7140 ca        1 LIG     -0.039300
     17 O6         -3.7120    1.7640    1.0550 o         1 LIG     -0.819800
     18 C7          3.8140    0.1560   -0.0700 cp        1 LIG     -0.099000
     19 C8          5.0110   -0.5170    0.1620 ca        1 LIG     -0.101000
     20 C9          6.1350    0.1900    0.5390 ca        1 LIG     -0.120000
     21 C10         6.0740    1.5640    0.6860 ca        1 LIG     -0.087000
     22 C11         4.8880    2.2370    0.4560 ca        1 LIG     -0.120000
     23 C12         3.7590    1.5410    0.0740 ca        1 LIG     -0.101000
     24 H          -0.7040    1.0640   -1.7730 h1        1 LIG      0.123700
     25 H1         -1.5600   -0.4490   -1.9460 h1        1 LIG      0.123700
     26 H2         -0.2550   -1.7020    1.5980 ho        1 LIG      0.513750
     27 H3         -2.2910   -0.5110    2.7580 ho        1 LIG      0.513750
     28 H4         -0.5290   -2.4020   -1.5030 h4        1 LIG      0.255000
     29 H5          0.0430    0.4710    1.0750 ho        1 LIG      0.442000
     30 H6          1.4900   -3.6710   -1.1280 ha        1 LIG      0.198000
     31 H7          3.5230   -2.5100   -0.4610 ha        1 LIG      0.188000
     32 H8         -2.2430    2.5620   -1.8480 ho        1 LIG      0.513750
     33 H9         -3.7550    0.4180   -2.0120 ho        1 LIG      0.513750
     34 H10         1.3550    1.0910   -0.6130 h4        1 LIG      0.228000
     35 H11         5.0580   -1.5420    0.0520 ha        1 LIG      0.135500
     36 H12         7.0220   -0.3070    0.7120 ha        1 LIG      0.155000
     37 H13         6.9170    2.0890    0.9680 ha        1 LIG      0.156000
     38 H14         4.8470    3.2620    0.5700 ha        1 LIG      0.155000
     39 H15         2.8760    2.0450   -0.1040 ha        1 LIG      0.135500
@<TRIPOS>BOND
     1    1    2 1   
     2    1    6 1   
     3    2    3 1   
     4    2    9 1   
     5    2   11 1   
     6    3    4 1   
     7    3    5 1   
     8    3    7 2   
     9    6    8 ar  
    10    6   16 ar  
    11    8   10 ar  
    12   10   12 ar  
    13   11   13 1   
    14   11   15 1   
    15   11   17 2   
    16   12   14 ar  
    17   14   16 ar  
    18   14   18 1   
    19   18   19 ar  
    20   18   23 ar  
    21   19   20 ar  
    22   20   21 ar  
    23   21   22 ar  
    24   22   23 ar  
    25    1   24 1   
    26    1   25 1   
    27    4   26 1   
    28    5   27 1   
    29    8   28 1   
    30    9   29 1   
    31   10   30 1   
    32   12   31 1   
    33   13   32 1   
    34   15   33 1   
    35   16   34 1   
    36   19   35 1   
    37   20   36 1   
    38   21   37 1   
    39   22   38 1   
    40   23   39 1   
@<TRIPOS>SUBSTRUCTURE
     1 LIG         1 TEMP              0 ****  ****    0 ROOT
