@<TRIPOS>MOLECULE
MKU
   56    59     1     0     0
SMALL
bcc


@<TRIPOS>ATOM
      1 C          -5.6090   -2.4570   -0.7150 C.3       1 LIG     -0.060400
      2 C1         -4.7370   -2.4220    0.5130 C.2       1 LIG     -0.122400
      3 C2         -5.2310   -3.0220    1.8050 C.3       1 LIG     -0.060400
      4 C3         -3.5500   -1.8710    0.4580 C.2       1 LIG     -0.160200
      5 C4         -3.1090   -1.1530   -0.7910 C.3       1 LIG     -0.017900
      6 C5         -2.6460    0.2360   -0.4360 C.a       1 LIG      0.050700
      7 C6         -1.3090    0.4690   -0.1120 C.a       1 LIG     -0.232600
      8 C7         -0.3220   -0.6310   -0.1220 C.        1 LIG      0.625300
      9 O          -0.6580   -1.8010   -0.1780 O.3       1 LIG     -0.594100
     10 C8          1.0940   -0.2260   -0.0590 C.a       1 LIG     -0.335600
     11 C9          2.1200   -1.1380   -0.3280 C.a       1 LIG      0.264100
     12 O1          1.8230   -2.4260   -0.6370 O.h       1 LIG     -0.501100
     13 C10         3.4420   -0.7230   -0.2780 C.a       1 LIG     -0.229300
     14 C11         4.5250   -1.7290   -0.5730 C.3       1 LIG     -0.014100
     15 C12         5.8310   -0.9990   -0.8960 C.3       1 LIG     -0.102400
     16 C13         6.0670    0.0660    0.1830 C.3       1 LIG      0.153800
     17 C14         7.4220    0.7390   -0.0440 C.3       1 LIG     -0.104100
     18 C15         6.0410   -0.5880    1.5660 C.3       1 LIG     -0.104100
     19 O2          5.0250    1.0380    0.0910 O.2       1 LIG     -0.318900
     20 C16         3.7420    0.5940    0.0410 C.a       1 LIG      0.227100
     21 C17         2.7240    1.5000    0.3180 C.a       1 LIG     -0.236000
     22 C18         1.3960    1.1050    0.2750 C.a       1 LIG      0.211100
     23 O3          0.4190    1.9910    0.5560 O.2       1 LIG     -0.220200
     24 C19        -0.8690    1.7590    0.2260 C.a       1 LIG      0.187100
     25 C20        -1.7830    2.8060    0.2250 C.a       1 LIG     -0.252000
     26 C21        -3.1070    2.5710   -0.0990 C.a       1 LIG      0.163100
     27 O4         -3.9920    3.6010   -0.0970 O.h       1 LIG     -0.481100
     28 C22        -3.5410    1.2860   -0.4330 C.a       1 LIG      0.029100
     29 O5         -4.8460    1.0690   -0.7510 O.2       1 LIG     -0.325900
     30 C23        -5.7290    0.7410    0.3230 C.3       1 LIG      0.110700
     31 H          -5.0970   -1.9880   -1.5290 H         1 LIG      0.040533
     32 H1         -6.5220   -1.9340   -0.5190 H         1 LIG      0.040533
     33 H2         -5.8270   -3.4730   -0.9690 H         1 LIG      0.040533
     34 H3         -6.2130   -3.4220    1.6600 H         1 LIG      0.040533
     35 H4         -5.2620   -2.2650    2.5610 H         1 LIG      0.040533
     36 H5         -4.5690   -3.8040    2.1110 H         1 LIG      0.040533
     37 H6         -2.9170   -1.9290    1.2710 H         1 LIG      0.133000
     38 H7         -3.9290   -1.0910   -1.4750 H         1 LIG      0.080700
     39 H8         -2.3040   -1.6910   -1.2460 H         1 LIG      0.080700
     40 H9          0.9290   -2.7060   -0.6710 H         1 LIG      0.467000
     41 H10         4.2360   -2.3280   -1.4110 H         1 LIG      0.062700
     42 H11         4.6700   -2.3550    0.2820 H         1 LIG      0.062700
     43 H12         5.7560   -0.5320   -1.8560 H         1 LIG      0.058700
     44 H13         6.6460   -1.6920   -0.9140 H         1 LIG      0.058700
     45 H14         8.2000    0.0070    0.0260 H         1 LIG      0.050200
     46 H15         7.5740    1.4940    0.6990 H         1 LIG      0.050200
     47 H16         7.4400    1.1870   -1.0160 H         1 LIG      0.050200
     48 H17         6.8230   -1.3150    1.6310 H         1 LIG      0.050200
     49 H18         5.0960   -1.0660    1.7170 H         1 LIG      0.050200
     50 H19         6.1860    0.1600    2.3170 H         1 LIG      0.050200
     51 H20         2.9590    2.4760    0.5580 H         1 LIG      0.171000
     52 H21        -1.4730    3.7600    0.4660 H         1 LIG      0.160000
     53 H22        -3.7050    4.4650    0.1260 H         1 LIG      0.426000
     54 H23        -6.7180    0.5970   -0.0600 H         1 LIG      0.046367
     55 H24        -5.7360    1.5390    1.0360 H         1 LIG      0.046367
     56 H25        -5.3950   -0.1580    0.7970 H         1 LIG      0.046367
@<TRIPOS>BOND
     1    1    2 1   
     2    2    4 2   
     3    3    2 1   
     4    4    5 1   
     5    5    6 1   
     6    6    7 ar  
     7    7    8 1   
     8    7   24 ar  
     9    8   10 1   
    10    9    8 2   
    11   10   11 ar  
    12   10   22 ar  
    13   11   13 ar  
    14   12   11 1   
    15   13   14 1   
    16   13   20 ar  
    17   14   15 1   
    18   15   16 1   
    19   16   18 1   
    20   16   17 1   
    21   19   16 1   
    22   20   19 1   
    23   21   20 ar  
    24   22   21 ar  
    25   23   22 1   
    26   24   23 1   
    27   25   24 ar  
    28   26   25 ar  
    29   27   26 1   
    30   28    6 ar  
    31   28   26 ar  
    32   29   28 1   
    33   30   29 1   
    34    1   31 1   
    35    1   32 1   
    36    1   33 1   
    37    3   34 1   
    38    3   35 1   
    39    3   36 1   
    40    4   37 1   
    41    5   38 1   
    42    5   39 1   
    43   12   40 1   
    44   14   41 1   
    45   14   42 1   
    46   15   43 1   
    47   15   44 1   
    48   17   45 1   
    49   17   46 1   
    50   17   47 1   
    51   18   48 1   
    52   18   49 1   
    53   18   50 1   
    54   21   51 1   
    55   25   52 1   
    56   27   53 1   
    57   30   54 1   
    58   30   55 1   
    59   30   56 1   
@<TRIPOS>SUBSTRUCTURE
     1 LIG         1 TEMP              0 ****  ****    0 ROOT
