@<TRIPOS>MOLECULE
XNW
   39    40     1     0     0
SMALL
bcc


@<TRIPOS>ATOM
      1 C          -6.1580    1.0190    0.0680 C.3       1 LIG      0.119700
      2 O          -5.4720    0.0130   -0.6790 O.2       1 LIG     -0.336900
      3 C1         -4.1890   -0.2560   -0.3210 C.a       1 LIG      0.097100
      4 C2         -3.4640   -1.2210   -1.0040 C.a       1 LIG     -0.187500
      5 C3         -2.1600   -1.4920   -0.6370 C.a       1 LIG     -0.098000
      6 C4         -3.6010    0.4390    0.7260 C.a       1 LIG     -0.187500
      7 C5         -2.2960    0.1640    1.0890 C.a       1 LIG     -0.098000
      8 C6         -1.5770   -0.8020    0.4100 C.a       1 LIG     -0.097300
      9 C7         -0.1550   -1.1000    0.8080 C.3       1 LIG     -0.030100
     10 C8          0.8020   -0.3470   -0.1170 C.3       1 LIG     -0.180700
     11 C9          0.6770    1.1410    0.1240 C.        1 LIG      0.547100
     12 O1         -0.2010    1.5820    0.8270 O.3       1 LIG     -0.560100
     13 C10         1.6780    2.0620   -0.5370 C.3       1 LIG      0.000100
     14 O2          1.5210    3.3880   -0.0260 O.h       1 LIG     -0.587800
     15 C11         3.0890    1.5530   -0.2240 C.3       1 LIG      0.115100
     16 O3          4.0470    2.3340   -0.9410 O.h       1 LIG     -0.591800
     17 C12         3.2060    0.0880   -0.6460 C.3       1 LIG     -0.139400
     18 C13         2.2450   -0.7680    0.1810 C.3       1 LIG      0.018800
     19 C14         2.4290   -2.2200   -0.1790 C.        1 LIG      0.935600
     20 O4          3.3850   -2.9450    0.4220 O.3       1 LIG     -0.809300
     21 O5          1.7150   -2.7320   -1.0090 O.3       1 LIG     -0.809300
     22 O6          2.5180   -0.5840    1.5710 O.h       1 LIG     -0.553800
     23 H          -7.1510    1.1310   -0.3140 H         1 LIG      0.033367
     24 H1         -5.6350    1.9480   -0.0210 H         1 LIG      0.033367
     25 H2         -6.2020    0.7310    1.0980 H         1 LIG      0.033367
     26 H3         -3.8980   -1.7360   -1.7860 H         1 LIG      0.131000
     27 H4         -1.6200   -2.2100   -1.1450 H         1 LIG      0.166500
     28 H5         -4.1370    1.1600    1.2330 H         1 LIG      0.131000
     29 H6         -1.8580    0.6800    1.8680 H         1 LIG      0.166500
     30 H7          0.0250   -2.1520    0.7280 H         1 LIG      0.075200
     31 H8          0.0050   -0.7870    1.8190 H         1 LIG      0.075200
     32 H9          0.5550   -0.5770   -1.1330 H         1 LIG      0.116700
     33 H10         1.5200    2.0760   -1.5950 H         1 LIG      0.093700
     34 H11         1.6630    3.3840    0.9340 H         1 LIG      0.408000
     35 H12         3.2750    1.6380    0.8260 H         1 LIG      0.067700
     36 H13         3.8790    2.2570   -1.8930 H         1 LIG      0.397000
     37 H14         4.2090   -0.2490   -0.4860 H         1 LIG      0.074700
     38 H15         2.9560   -0.0020   -1.6830 H         1 LIG      0.074700
     39 H16         2.4000    0.3500    1.8030 H         1 LIG      0.358000
@<TRIPOS>BOND
     1    1    2 1   
     2    2    3 1   
     3    3    4 ar  
     4    3    6 ar  
     5    4    5 ar  
     6    5    8 ar  
     7    6    7 ar  
     8    7    8 ar  
     9    8    9 1   
    10    9   10 1   
    11   10   11 1   
    12   10   18 1   
    13   11   12 2   
    14   11   13 1   
    15   13   14 1   
    16   13   15 1   
    17   15   16 1   
    18   15   17 1   
    19   17   18 1   
    20   18   19 1   
    21   18   22 1   
    22   19   20 1   
    23   19   21 1   
    24    1   23 1   
    25    1   24 1   
    26    1   25 1   
    27    4   26 1   
    28    5   27 1   
    29    6   28 1   
    30    7   29 1   
    31    9   30 1   
    32    9   31 1   
    33   10   32 1   
    34   13   33 1   
    35   14   34 1   
    36   15   35 1   
    37   16   36 1   
    38   17   37 1   
    39   17   38 1   
    40   22   39 1   
@<TRIPOS>SUBSTRUCTURE
     1 LIG         1 TEMP              0 ****  ****    0 ROOT
