@<TRIPOS>MOLECULE
MLY
   31    30     1     0     0
SMALL
bcc


@<TRIPOS>ATOM
      1 N1         -1.7960   -0.0120   -2.2010 N.4       1 <1>     -0.828600
      2 C1         -0.4080    0.4670   -2.2560 C.3       1 <1>     -0.018500
      3 C2          0.3520   -0.0330   -1.0260 C.3       1 <1>     -0.086400
      4 C3         -0.3210    0.4960    0.2400 C.3       1 <1>     -0.075400
      5 C4          0.4390   -0.0030    1.4700 C.3       1 <1>     -0.104400
      6 C5         -0.2330    0.5260    2.7370 C.3       1 <1>      0.116800
      7 N2          0.4960    0.0450    3.9170 N.4       1 <1>     -0.688400
      8 C6         -0.1970    0.5870    5.0930 C.3       1 <1>      0.086600
      9 C7          0.3210   -1.4120    3.9580 C.3       1 <1>      0.086600
     10 C8          0.2540   -0.0540   -3.5040 C.        1 <1>      0.901600
     11 O1         -0.0890   -1.1130   -3.9730 O.3       1 <1>     -0.798800
     12 O2          1.2270    0.6560   -4.0950 O.3       1 <1>     -0.798800
     13 H1         -2.2440    0.3410   -1.3550 H         1 <1>      0.457800
     14 H2         -1.8040   -1.0320   -2.1890 H         1 <1>      0.457800
     15 H3         -2.3040    0.3220   -3.0200 H         1 <1>      0.457800
     16 H4         -0.3990    1.5370   -2.2690 H         1 <1>      0.116700
     17 H5          1.3630    0.3160   -1.0650 H         1 <1>      0.060700
     18 H6          0.3440   -1.1030   -1.0130 H         1 <1>      0.060700
     19 H7         -1.3310    0.1460    0.2790 H         1 <1>      0.074200
     20 H8         -0.3130    1.5660    0.2270 H         1 <1>      0.074200
     21 H9          1.4500    0.3460    1.4300 H         1 <1>      0.073700
     22 H10         0.4300   -1.0730    1.4830 H         1 <1>      0.073700
     23 H11        -1.2440    0.1780    2.7760 H         1 <1>      0.103700
     24 H12        -0.2240    1.5960    2.7250 H         1 <1>      0.103700
     25 H13         1.4800    0.3130    3.8940 H         1 <1>      0.506800
     26 H14        -1.2220    0.2820    5.0750 H         1 <1>      0.097533
     27 H15        -0.1420    1.6550    5.0780 H         1 <1>      0.097533
     28 H16         0.2690    0.2180    5.9830 H         1 <1>      0.097533
     29 H17        -0.7230   -1.6450    3.9810 H         1 <1>      0.097533
     30 H18         0.7930   -1.8030    4.8350 H         1 <1>      0.097533
     31 H19         0.7650   -1.8490    3.0880 H         1 <1>      0.097533
@<TRIPOS>BOND
     1    1    2 1   
     2    2    3 1   
     3    2   10 1   
     4    3    4 1   
     5    4    5 1   
     6    5    6 1   
     7    6    7 1   
     8    7    8 1   
     9    7    9 1   
    10   10   11 1   
    11   10   12 1   
    12    1   13 1   
    13    1   14 1   
    14    1   15 1   
    15    2   16 1   
    16    3   17 1   
    17    3   18 1   
    18    4   19 1   
    19    4   20 1   
    20    5   21 1   
    21    5   22 1   
    22    6   23 1   
    23    6   24 1   
    24    7   25 1   
    25    8   26 1   
    26    8   27 1   
    27    8   28 1   
    28    9   29 1   
    29    9   30 1   
    30    9   31 1   
@<TRIPOS>SUBSTRUCTURE
     1 <1>         1 TEMP              0 ****  ****    0 ROOT
