@<TRIPOS>MOLECULE
5MC
   36    37     1     0     0
SMALL
bcc


@<TRIPOS>ATOM
      1 P           1.1300   -0.1000   -4.2320 P.5       1 LIG      1.343900
      2 O           1.7080    1.2190   -3.8930 O.3       1 LIG     -0.926500
      3 O1          2.2870   -1.0620   -4.8030 O.3       1 LIG     -0.926500
      4 O2         -0.0130    0.0850   -5.3510 O.3       1 LIG     -0.926500
      5 O3          0.4870   -0.7590   -2.9120 O.2       1 LIG     -0.569200
      6 C          -0.5280    0.1360   -2.4550 C.3       1 LIG      0.223400
      7 C1         -1.1820   -0.4340   -1.1960 C.3       1 LIG      0.061100
      8 O4         -0.2060   -0.5720   -0.1400 O.2       1 LIG     -0.437600
      9 C2         -2.2310    0.5530   -0.6370 C.3       1 LIG      0.076100
     10 O5         -3.5450    0.1780   -1.0560 O.h       1 LIG     -0.662800
     11 C3         -2.0920    0.4210    0.8970 C.3       1 LIG      0.106100
     12 O6         -3.3170   -0.0360    1.4730 O.h       1 LIG     -0.615800
     13 C4         -0.9740   -0.6270    1.0820 C.3       1 LIG      0.261500
     14 N          -0.1310   -0.2780    2.2280 N.        1 LIG     -0.367000
     15 C5          0.5050    0.9060    2.2550 C.        1 LIG      0.823900
     16 O7          0.3740    1.6780    1.3200 O.3       1 LIG     -0.687500
     17 N1          1.2770    1.2490    3.2850 N.c       1 LIG     -0.767100
     18 C6          1.4320    0.4300    4.3170 C.d       1 LIG      0.712500
     19 N2          2.2310    0.7940    5.3750 N.h       1 LIG     -0.898800
     20 C7          0.7820   -0.8210    4.3180 C.d       1 LIG     -0.384800
     21 C8          0.0010   -1.1550    3.2630 C.c       1 LIG      0.075600
     22 C9          0.9490   -1.7690    5.4770 C.3       1 LIG     -0.056900
     23 H          -1.2680    0.2550   -3.2180 H         1 LIG      0.000200
     24 H1         -0.0900    1.0860   -2.2300 H         1 LIG      0.000200
     25 H2         -1.6170   -1.3720   -1.4720 H         1 LIG      0.046700
     26 H3         -2.0780    1.5550   -0.9800 H         1 LIG      0.158700
     27 H4         -3.7300   -0.7290   -0.7660 H         1 LIG      0.492000
     28 H5         -1.8650    1.3510    1.3750 H         1 LIG      0.073700
     29 H6         -3.5680   -0.8820    1.0700 H         1 LIG      0.420000
     30 H7         -1.3660   -1.6050    1.2700 H         1 LIG      0.109700
     31 H8          2.6840    1.6680    5.3720 H         1 LIG      0.393800
     32 H9          2.3500    0.1800    6.1360 H         1 LIG      0.393800
     33 H10        -0.4890   -2.0630    3.2430 H         1 LIG      0.291000
     34 H11         1.5980   -1.3300    6.2060 H         1 LIG      0.054367
     35 H12         1.3730   -2.6870    5.1280 H         1 LIG      0.054367
     36 H13        -0.0060   -1.9630    5.9200 H         1 LIG      0.054367
@<TRIPOS>BOND
     1    1    2 1   
     2    1    3 1   
     3    1    4 1   
     4    1    5 1   
     5    5    6 1   
     6    6    7 1   
     7    7    8 1   
     8    7    9 1   
     9    8   13 1   
    10    9   10 1   
    11    9   11 1   
    12   11   12 1   
    13   11   13 1   
    14   13   14 1   
    15   14   15 1   
    16   14   21 1   
    17   15   16 2   
    18   15   17 1   
    19   17   18 2   
    20   18   19 1   
    21   18   20 1   
    22   20   21 2   
    23   20   22 1   
    24    6   23 1   
    25    6   24 1   
    26    7   25 1   
    27    9   26 1   
    28   10   27 1   
    29   11   28 1   
    30   12   29 1   
    31   13   30 1   
    32   19   31 1   
    33   19   32 1   
    34   21   33 1   
    35   22   34 1   
    36   22   35 1   
    37   22   36 1   
@<TRIPOS>SUBSTRUCTURE
     1 LIG         1 TEMP              0 ****  ****    0 ROOT
