@<TRIPOS>MOLECULE
DEB
   65    65     1     0     0
SMALL
bcc


@<TRIPOS>ATOM
      1 C           2.1110    0.2420    0.1670 C.        1 LIG      0.634100
      2 C1          2.2990   -0.4340   -1.1650 C.3       1 LIG     -0.140700
      3 C2          1.6620    0.4630   -2.2030 C.3       1 LIG      0.153100
      4 C3          0.4350   -0.2880   -2.8200 C.3       1 LIG     -0.130700
      5 C4         -0.6520    0.6360   -3.1410 C.3       1 LIG      0.141100
      6 C5         -1.9770    0.2330   -2.4320 C.3       1 LIG     -0.095700
      7 C6         -1.6470    0.0620   -0.9140 C.3       1 LIG     -0.074400
      8 C7         -2.9070   -0.4950   -0.1410 C.3       1 LIG     -0.161700
      9 C8         -3.0880    0.2510    1.1470 C.        1 LIG      0.572100
     10 C9         -2.2490   -0.1110    2.3900 C.3       1 LIG     -0.192700
     11 C10        -0.7980    0.3040    2.1070 C.3       1 LIG      0.146100
     12 C11         0.1960   -0.3940    3.0200 C.3       1 LIG     -0.092700
     13 C12         1.6400    0.0090    2.5570 C.3       1 LIG      0.146100
     14 C13         2.6110   -0.4700    3.6760 C.3       1 LIG     -0.096400
     15 C14         4.0310   -0.0010    3.3560 C.3       1 LIG     -0.101100
     16 O           1.9400   -0.5480    1.3280 O.2       1 LIG     -0.454900
     17 O1          2.0480    1.4320    0.2740 O.3       1 LIG     -0.521000
     18 C15         3.7690   -0.4760   -1.4460 C.3       1 LIG     -0.094100
     19 O2          2.5920    0.7980   -3.2320 O.h       1 LIG     -0.577800
     20 C16         0.9190   -0.9740   -4.1830 C.3       1 LIG     -0.102100
     21 O3         -0.9380    0.6640   -4.5260 O.h       1 LIG     -0.588800
     22 C17        -2.5370   -1.0530   -3.0450 C.3       1 LIG     -0.102100
     23 C18        -2.7510   -2.0260    0.1510 C.3       1 LIG     -0.089100
     24 O4         -3.9450    1.0790    1.2170 O.3       1 LIG     -0.514100
     25 C19        -2.7060    0.7300    3.5270 C.3       1 LIG     -0.097100
     26 O5         -0.6530    1.7620    2.2330 O.h       1 LIG     -0.585800
     27 C20         0.0750   -1.8600    2.7600 C.3       1 LIG     -0.088100
     28 H           1.8770   -1.4170   -1.1750 H         1 LIG      0.080700
     29 H1          1.3480    1.3730   -1.7370 H         1 LIG      0.082700
     30 H2          0.0760   -1.0040   -2.1110 H         1 LIG      0.062700
     31 H3         -0.3110    1.5930   -2.8070 H         1 LIG      0.094700
     32 H4         -2.7320    0.9810   -2.5570 H         1 LIG      0.068700
     33 H5         -1.3710    1.0110   -0.5030 H         1 LIG      0.049200
     34 H6         -0.8380   -0.6310   -0.8080 H         1 LIG      0.049200
     35 H7         -3.7690   -0.3540   -0.7580 H         1 LIG      0.081700
     36 H8         -2.3400   -1.1540    2.6090 H         1 LIG      0.072700
     37 H9         -0.5770    0.0030    1.1040 H         1 LIG      0.079700
     38 H10         0.0190   -0.1400    4.0440 H         1 LIG      0.058700
     39 H11         1.7270    1.0670    2.4210 H         1 LIG      0.097700
     40 H12         2.5920   -1.5380    3.7310 H         1 LIG      0.049200
     41 H13         2.3030   -0.0590    4.6150 H         1 LIG      0.049200
     42 H14         4.3390   -0.4120    2.4170 H         1 LIG      0.042700
     43 H15         4.6970   -0.3300    4.1260 H         1 LIG      0.042700
     44 H16         4.0500    1.0670    3.3010 H         1 LIG      0.042700
     45 H17         4.1640    0.5180   -1.4290 H         1 LIG      0.053033
     46 H18         3.9360   -0.9100   -2.4100 H         1 LIG      0.053033
     47 H19         4.2580   -1.0670   -0.7000 H         1 LIG      0.053033
     48 H20         2.8930   -0.0120   -3.6720 H         1 LIG      0.405000
     49 H21         1.2680   -0.2200   -4.8570 H         1 LIG      0.043367
     50 H22         0.1000   -1.4990   -4.6280 H         1 LIG      0.043367
     51 H23         1.7120   -1.6610   -3.9740 H         1 LIG      0.043367
     52 H24        -1.2450   -0.2110   -4.8100 H         1 LIG      0.396000
     53 H25        -1.8170   -1.8380   -2.9460 H         1 LIG      0.038367
     54 H26        -2.7490   -0.8910   -4.0810 H         1 LIG      0.038367
     55 H27        -3.4370   -1.3280   -2.5360 H         1 LIG      0.038367
     56 H28        -1.8920   -2.1860    0.7680 H         1 LIG      0.042700
     57 H29        -2.6300   -2.5550   -0.7710 H         1 LIG      0.042700
     58 H30        -3.6240   -2.3840    0.6550 H         1 LIG      0.042700
     59 H31        -2.6000    1.7640    3.2710 H         1 LIG      0.047367
     60 H32        -2.1130    0.5140    4.3910 H         1 LIG      0.047367
     61 H33        -3.7340    0.5180    3.7370 H         1 LIG      0.047367
     62 H34        -0.8550    2.0300    3.1430 H         1 LIG      0.405000
     63 H35         0.2610   -2.0550    1.7250 H         1 LIG      0.040367
     64 H36        -0.9120   -2.1870    3.0130 H         1 LIG      0.040367
     65 H37         0.7890   -2.3880    3.3570 H         1 LIG      0.040367
@<TRIPOS>BOND
     1    1    2 1   
     2    1   16 1   
     3    1   17 2   
     4    2    3 1   
     5    2   18 1   
     6    3    4 1   
     7    3   19 1   
     8    4    5 1   
     9    4   20 1   
    10    5    6 1   
    11    5   21 1   
    12    6    7 1   
    13    6   22 1   
    14    7    8 1   
    15    8    9 1   
    16    8   23 1   
    17    9   10 1   
    18    9   24 2   
    19   10   11 1   
    20   10   25 1   
    21   11   12 1   
    22   11   26 1   
    23   12   13 1   
    24   12   27 1   
    25   13   14 1   
    26   13   16 1   
    27   14   15 1   
    28    2   28 1   
    29    3   29 1   
    30    4   30 1   
    31    5   31 1   
    32    6   32 1   
    33    7   33 1   
    34    7   34 1   
    35    8   35 1   
    36   10   36 1   
    37   11   37 1   
    38   12   38 1   
    39   13   39 1   
    40   14   40 1   
    41   14   41 1   
    42   15   42 1   
    43   15   43 1   
    44   15   44 1   
    45   18   45 1   
    46   18   46 1   
    47   18   47 1   
    48   19   48 1   
    49   20   49 1   
    50   20   50 1   
    51   20   51 1   
    52   21   52 1   
    53   22   53 1   
    54   22   54 1   
    55   22   55 1   
    56   23   56 1   
    57   23   57 1   
    58   23   58 1   
    59   25   59 1   
    60   25   60 1   
    61   25   61 1   
    62   26   62 1   
    63   27   63 1   
    64   27   64 1   
    65   27   65 1   
@<TRIPOS>SUBSTRUCTURE
     1 LIG         1 TEMP              0 ****  ****    0 ROOT
