@<TRIPOS>MOLECULE
4D4
   28    27     1     0     0
SMALL
bcc


@<TRIPOS>ATOM
      1 C1          3.3990   -0.1940    0.2200 C.        1 <1>      0.939600
      2 O1          4.0230    0.0400   -0.7870 O.3       1 <1>     -0.728300
      3 C2          2.1380    0.5740    0.5210 C.3       1 <1>     -0.157500
      4 N1          2.1320    1.8260   -0.2470 N.4       1 <1>     -0.809600
      5 C3          0.9220   -0.2690    0.1310 C.3       1 <1>      0.149100
      6 O2          1.0350   -0.6640   -1.2370 O.h       1 <1>     -0.643800
      7 C4         -0.3530    0.5560    0.3190 C.3       1 <1>     -0.101400
      8 C5         -1.5750   -0.3240    0.0490 C.3       1 <1>      0.017300
      9 N2         -2.7950    0.4660    0.2300 N.h       1 <1>     -0.403100
     10 C6         -4.0260   -0.1170    0.0400 C.z       1 <1>      0.524300
     11 N3         -4.1070   -1.3720   -0.3010 N.h       1 <1>     -0.504700
     12 N4         -5.1710    0.6250    0.2090 N.h       1 <1>     -0.504700
     13 O3          3.8260   -1.1420    1.0690 O.3       1 <1>     -0.728300
     14 H1          2.0970    0.7970    1.5670 H         1 <1>      0.107700
     15 H2          2.1710    1.6140   -1.2440 H         1 <1>      0.450133
     16 H3          2.9430    2.3880    0.0130 H         1 <1>      0.450133
     17 H4          1.2780    2.3460   -0.0430 H         1 <1>      0.450133
     18 H5          0.8790   -1.1390    0.7520 H         1 <1>      0.091700
     19 H6          1.0740    0.1250   -1.7990 H         1 <1>      0.470000
     20 H7         -0.3490    1.3800   -0.3640 H         1 <1>      0.062700
     21 H8         -0.3940    0.9250    1.3230 H         1 <1>      0.062700
     22 H9         -1.5340   -0.6930   -0.9550 H         1 <1>      0.083700
     23 H10        -1.5790   -1.1480    0.7320 H         1 <1>      0.083700
     24 H11        -2.7340    1.4140    0.4880 H         1 <1>      0.320700
     25 H12        -4.9880   -1.7890   -0.4370 H         1 <1>      0.328700
     26 H13        -3.2870   -1.9030   -0.4230 H         1 <1>      0.328700
     27 H14        -5.1100    1.5730    0.4670 H         1 <1>      0.328700
     28 H15        -6.0520    0.2080    0.0720 H         1 <1>      0.328700
@<TRIPOS>BOND
     1    1   13 1   
     2    2    1 1   
     3    3    5 1   
     4    3    1 1   
     5    4    3 1   
     6    5    7 1   
     7    6    5 1   
     8    8    9 1   
     9    8    7 1   
    10   10   12 1   
    11   10    9 2   
    12   11   10 1   
    13    3   14 1   
    14    4   15 1   
    15    4   16 1   
    16    4   17 1   
    17    5   18 1   
    18    6   19 1   
    19    7   20 1   
    20    7   21 1   
    21    8   22 1   
    22    8   23 1   
    23    9   24 1   
    24   11   25 1   
    25   11   26 1   
    26   12   27 1   
    27   12   28 1   
@<TRIPOS>SUBSTRUCTURE
     1 <1>         1 TEMP              0 ****  ****    0 ROOT
