@<TRIPOS>MOLECULE
PFQ
   42    45     1     0     0
SMALL
bcc


@<TRIPOS>ATOM
      1 C          -3.5610   -0.0760    2.2820 C.a       1 LIG      0.680900
      2 C1         -1.1100   -0.0360   -1.4540 C.c       1 LIG      0.100900
      3 C2         -0.5600   -0.0200   -2.8230 C.a       1 LIG     -0.045800
      4 C3         -1.0580    0.8790   -3.7680 C.a       1 LIG     -0.100500
      5 C4         -0.5400    0.8880   -5.0460 C.a       1 LIG     -0.135000
      6 C5          0.4700    0.0090   -5.3930 C.a       1 LIG     -0.115000
      7 C6          0.9690   -0.8840   -4.4610 C.a       1 LIG     -0.135000
      8 C7          0.4640   -0.9010   -3.1780 C.a       1 LIG     -0.100500
      9 C8          1.7700   -1.1770    0.3110 C.a       1 LIG     -0.118000
     10 C9          3.1460   -1.1780    0.4060 C.a       1 LIG     -0.138000
     11 C10         3.8700   -0.0670    0.0100 C.a       1 LIG     -0.126000
     12 C11         3.2200    1.0480   -0.4870 C.a       1 LIG     -0.138000
     13 N          -3.6810   -0.0600    0.9720 N.b       1 LIG     -0.705000
     14 C12        -2.6050   -0.0530    0.1890 C.a       1 LIG      0.614600
     15 O          -2.4210   -0.0370   -1.1420 O.2       1 LIG     -0.298400
     16 C13        -1.3380   -0.0580    0.7960 C.a       1 LIG     -0.387400
     17 N1         -0.0300   -0.0930    2.8330 N.h       1 LIG     -0.844900
     18 C14        -1.2570   -0.0820    2.1940 C.a       1 LIG      0.731200
     19 N2         -2.3900   -0.0870    2.8920 N.b       1 LIG     -0.774000
     20 C15         1.8450    1.0580   -0.5920 C.a       1 LIG     -0.118000
     21 C16        -0.3670   -0.0530   -0.3050 C.d       1 LIG     -0.037400
     22 C17         1.1090   -0.0580   -0.1950 C.a       1 LIG     -0.046800
     23 C18         1.4960   -0.1210    4.7440 C.3       1 LIG      0.115400
     24 C19         0.0320   -0.1110    4.2970 C.3       1 LIG      0.163800
     25 O1          2.1510    1.0490    4.2530 O.h       1 LIG     -0.595800
     26 H          -4.4180   -0.0800    2.8570 H         1 LIG      0.057100
     27 H1         -1.8120    1.5350   -3.5110 H         1 LIG      0.148500
     28 H2         -0.9070    1.5520   -5.7450 H         1 LIG      0.136000
     29 H3          0.8530    0.0190   -6.3510 H         1 LIG      0.134000
     30 H4          1.7210   -1.5390   -4.7270 H         1 LIG      0.136000
     31 H5          0.8420   -1.5630   -2.4820 H         1 LIG      0.148500
     32 H6          1.2300   -2.0030    0.6140 H         1 LIG      0.147000
     33 H7          3.6360   -2.0090    0.7730 H         1 LIG      0.138500
     34 H8          4.8990   -0.0710    0.0860 H         1 LIG      0.138000
     35 H9          3.7650    1.8740   -0.7800 H         1 LIG      0.138500
     36 H10         0.8010   -0.0890    2.3050 H         1 LIG      0.430800
     37 H11         1.3610    1.8900   -0.9640 H         1 LIG      0.147000
     38 H12         1.9820   -0.9920    4.3550 H         1 LIG      0.057700
     39 H13         1.5430   -0.1340    5.8130 H         1 LIG      0.057700
     40 H14        -0.4590   -0.9880    4.6640 H         1 LIG      0.066700
     41 H15        -0.4540    0.7590    4.6860 H         1 LIG      0.066700
     42 H16         2.1080    1.0610    3.2840 H         1 LIG      0.399000
@<TRIPOS>BOND
     1    1   13 ar  
     2    1   19 ar  
     3    2    3 1   
     4    2   15 1   
     5    2   21 2   
     6    3    4 ar  
     7    3    8 ar  
     8    4    5 ar  
     9    5    6 ar  
    10    6    7 ar  
    11    7    8 ar  
    12    9   10 ar  
    13    9   22 ar  
    14   10   11 ar  
    15   11   12 ar  
    16   12   20 ar  
    17   13   14 ar  
    18   14   15 1   
    19   14   16 ar  
    20   16   18 ar  
    21   16   21 1   
    22   17   18 1   
    23   17   24 1   
    24   18   19 ar  
    25   20   22 ar  
    26   21   22 1   
    27   23   24 1   
    28   23   25 1   
    29    1   26 1   
    30    4   27 1   
    31    5   28 1   
    32    6   29 1   
    33    7   30 1   
    34    8   31 1   
    35    9   32 1   
    36   10   33 1   
    37   11   34 1   
    38   12   35 1   
    39   17   36 1   
    40   20   37 1   
    41   23   38 1   
    42   23   39 1   
    43   24   40 1   
    44   24   41 1   
    45   25   42 1   
@<TRIPOS>SUBSTRUCTURE
     1 LIG         1 TEMP              0 ****  ****    0 ROOT
