@<TRIPOS>MOLECULE
CQG
   12    12     1     0     0
SMALL
bcc


@<TRIPOS>ATOM
      1 C          -0.2110   -1.1960    0.0150 ca        1 LIG     -0.303800
      2 C1          1.1680   -1.1530   -0.0070 ca        1 LIG      0.425200
      3 C2          1.1680    1.1530   -0.0040 ca        1 LIG      0.425200
      4 C3         -0.2110    1.1960    0.0120 ca        1 LIG     -0.303800
      5 O          -2.2830    0.0000    0.0370 oh        1 LIG     -0.490100
      6 C4         -0.9250    0.0000    0.0220 ca        1 LIG      0.158100
      7 N           1.8090   -0.0000   -0.0150 nb        1 LIG     -0.688000
      8 H          -0.7060   -2.1010    0.0260 ha        1 LIG      0.152000
      9 H1          1.7050   -2.0340   -0.0170 h4        1 LIG      0.024100
     10 H2          1.7050    2.0340   -0.0070 h4        1 LIG      0.024100
     11 H3         -0.7060    2.1010    0.0170 ha        1 LIG      0.152000
     12 H4         -2.7520    0.8110    0.0420 ho        1 LIG      0.424000
@<TRIPOS>BOND
     1    2    1 ar  
     2    3    7 ar  
     3    3    4 ar  
     4    4    6 ar  
     5    6    1 ar  
     6    6    5 1   
     7    7    2 ar  
     8    1    8 1   
     9    2    9 1   
    10    3   10 1   
    11    4   11 1   
    12    5   12 1   
@<TRIPOS>SUBSTRUCTURE
     1 LIG         1 TEMP              0 ****  ****    0 ROOT
