@<TRIPOS>MOLECULE
A8K
   25    26     1     0     0
SMALL
bcc


@<TRIPOS>ATOM
      1 C           2.2160   -1.4520   -0.1080 ca        1 LIG     -0.179500
      2 C1          1.1610   -0.5620   -0.1130 ca        1 LIG     -0.078000
      3 C2         -1.8460    0.3980    1.2050 ca        1 LIG     -0.078000
      4 C3         -2.9550   -0.4240    1.2170 ca        1 LIG     -0.179500
      5 C4         -3.5790   -0.7650    0.0250 ca        1 LIG      0.128600
      6 C5         -1.3540    0.8840    0.0000 ca        1 LIG     -0.068100
      7 C6         -1.9760    0.5370   -1.1930 ca        1 LIG     -0.078000
      8 C7         -3.0880   -0.2800   -1.1790 ca        1 LIG     -0.179500
      9 C8          1.4030    0.8020   -0.0090 ca        1 LIG     -0.068100
     10 C9          2.7070    1.2690    0.1000 ca        1 LIG     -0.078000
     11 C10         3.7610    0.3770    0.1040 ca        1 LIG     -0.179500
     12 O          -4.6710   -1.5750    0.0370 oh        1 LIG     -0.495100
     13 S           0.0570    1.9390   -0.0150 ss        1 LIG     -0.100800
     14 C11         3.5180   -0.9850   -0.0000 ca        1 LIG      0.128600
     15 O1          4.5560   -1.8630    0.0100 oh        1 LIG     -0.495100
     16 H           2.0360   -2.4650   -0.1850 ha        1 LIG      0.145000
     17 H1          0.1930   -0.9100   -0.1940 ha        1 LIG      0.144750
     18 H2         -1.3820    0.6520    2.0910 ha        1 LIG      0.144750
     19 H3         -3.3200   -0.7850    2.1120 ha        1 LIG      0.145000
     20 H4         -1.6060    0.8900   -2.0900 ha        1 LIG      0.144750
     21 H5         -3.5550   -0.5300   -2.0650 ha        1 LIG      0.145000
     22 H6          2.8880    2.2820    0.1780 ha        1 LIG      0.144750
     23 H7          4.7300    0.7240    0.1840 ha        1 LIG      0.145000
     24 H8         -5.0920   -1.8050   -0.7680 ho        1 LIG      0.420500
     25 H9          4.3920   -2.7830   -0.0600 ho        1 LIG      0.420500
@<TRIPOS>BOND
     1    1   14 ar  
     2    2    1 ar  
     3    3    6 ar  
     4    4    3 ar  
     5    5    8 ar  
     6    5    4 ar  
     7    6   13 1   
     8    7    6 ar  
     9    8    7 ar  
    10    9    2 ar  
    11    9   10 ar  
    12   10   11 ar  
    13   11   14 ar  
    14   12    5 1   
    15   13    9 1   
    16   14   15 1   
    17    1   16 1   
    18    2   17 1   
    19    3   18 1   
    20    4   19 1   
    21    7   20 1   
    22    8   21 1   
    23   10   22 1   
    24   11   23 1   
    25   12   24 1   
    26   15   25 1   
@<TRIPOS>SUBSTRUCTURE
     1 LIG         1 TEMP              0 ****  ****    0 ROOT
