@<TRIPOS>MOLECULE
NZQ
   78    82     1     0     0
SMALL
bcc


@<TRIPOS>ATOM
      1 O           2.4240    1.9530   -7.9560 o         1 LIG     -0.732167
      2 P           1.8180    0.7080   -8.4760 p5        1 LIG      1.356900
      3 O1          2.5090    0.3190   -9.8770 o         1 LIG     -0.732167
      4 O2          0.2390    0.9330   -8.7010 o         1 LIG     -0.732167
      5 O3          2.0440   -0.4830   -7.4170 os        1 LIG     -0.587200
      6 C           1.4110   -0.0800   -6.2010 c3        1 LIG      0.157100
      7 C1          2.3950   -0.1830   -5.0060 c3        1 LIG      0.114100
      8 O4          3.4750   -1.0630   -5.3210 oh        1 LIG     -0.602800
      9 C2          0.3020   -1.0840   -5.7960 c3        1 LIG      0.244800
     10 N          -0.9650   -0.7490   -6.4500 na        1 LIG     -0.291000
     11 C3         -1.8940    0.1400   -5.9990 cc        1 LIG      0.327700
     12 N1         -2.8980    0.1920   -6.8260 nd        1 LIG     -0.768100
     13 C4         -2.6770   -0.6580   -7.8570 ca        1 LIG     -0.112200
     14 C5         -1.4310   -1.2680   -7.6310 ca        1 LIG      0.399800
     15 N2         -0.9810   -2.1610   -8.5060 nb        1 LIG     -0.703000
     16 C6         -1.6840   -2.4640   -9.5770 ca        1 LIG      0.561900
     17 N3         -2.8570   -1.9140   -9.8340 nb        1 LIG     -0.780000
     18 C7         -3.3900   -1.0140   -9.0140 ca        1 LIG      0.532200
     19 N4         -4.6190   -0.4430   -9.2920 nh        1 LIG     -0.889500
     20 O5          0.1980   -0.9120   -4.3660 os        1 LIG     -0.431600
     21 C8          1.5360   -0.7590   -3.8630 c3        1 LIG      0.102100
     22 C9          1.5380    0.2030   -2.6740 c3        1 LIG      0.174400
     23 O6          0.7330   -0.3360   -1.6230 os        1 LIG     -0.583200
     24 P1          0.7800    0.7220   -0.4110 p5        1 LIG      1.506800
     25 O7          0.2410    2.0220   -0.8710 o         1 LIG     -0.848500
     26 O8          2.3020    0.9140    0.0740 o         1 LIG     -0.848500
     27 O9         -0.1090    0.1750    0.8130 os        1 LIG     -0.689800
     28 P2         -0.0180    1.2770    1.9830 p5        1 LIG      1.629800
     29 O10         1.3930    1.4450    2.3930 o         1 LIG     -0.923000
     30 O11        -0.5900    2.6820    1.4430 o         1 LIG     -0.923000
     31 O12        -0.8900    0.7920    3.2460 os        1 LIG     -0.568200
     32 C10        -0.7700    1.8060    4.2450 c3        1 LIG      0.245400
     33 C11        -1.5800    1.4050    5.4800 c3        1 LIG      0.059100
     34 O13        -1.0710    0.1730    6.0360 os        1 LIG     -0.470600
     35 C12        -1.5380    0.1520    7.4030 c3        1 LIG      0.373300
     36 C13        -1.3770    1.6050    7.9010 c3        1 LIG      0.117100
     37 O14        -2.4610    1.9710    8.7570 oh        1 LIG     -0.630800
     38 C14        -1.4030    2.4490    6.6040 c3        1 LIG      0.093100
     39 O15        -2.5040    3.3590    6.6200 oh        1 LIG     -0.672800
     40 N5         -0.7180   -0.7560    8.2080 nh        1 LIG     -0.687400
     41 C15         0.6330   -0.5770    8.2930 c2        1 LIG      0.104000
     42 C16         1.3700   -1.2040    9.2220 ce        1 LIG     -0.284400
     43 C17         2.7630   -0.9620    9.2610 c         1 LIG      0.668300
     44 N6          3.5280   -1.5780   10.1840 n         1 LIG     -0.625000
     45 O16         3.2720   -0.1980    8.4600 o         1 LIG     -0.736100
     46 C18         0.7730   -2.1570   10.2190 c3        1 LIG     -0.042200
     47 C19        -0.7330   -1.9090   10.3450 c3        1 LIG      0.127100
     48 O17        -1.3330   -2.9650   11.0980 oh        1 LIG     -0.624800
     49 C20        -1.3390   -1.8720    8.9350 c3        1 LIG      0.378300
     50 O18        -1.0670   -3.1010    8.2590 oh        1 LIG     -0.665800
     51 H           1.0510    0.9110   -6.3810 h1        1 LIG      0.089700
     52 H1          2.8380    0.7570   -4.7520 h1        1 LIG      0.083700
     53 H2          3.1230   -1.9350   -5.5590 ho        1 LIG      0.419000
     54 H3          0.5260   -2.0910   -6.0820 h2        1 LIG      0.083700
     55 H4         -1.8130    0.6910   -5.1300 h5        1 LIG      0.100800
     56 H5         -1.3040   -3.1570  -10.2410 h5        1 LIG     -0.002900
     57 H6         -5.0030    0.2230   -8.6770 hn        1 LIG      0.349300
     58 H7         -5.1100   -0.7020  -10.1050 hn        1 LIG      0.349300
     59 H8          1.9260   -1.6990   -3.5340 h1        1 LIG      0.067700
     60 H9          1.1400    1.1480   -2.9790 h1        1 LIG      0.052200
     61 H10         2.5400    0.3350   -2.3240 h1        1 LIG      0.052200
     62 H11        -1.1430    2.7320    3.8600 h1        1 LIG     -0.010800
     63 H12         0.2590    1.9200    4.5150 h1        1 LIG     -0.010800
     64 H13        -2.5990    1.3180    5.1670 h1        1 LIG      0.055700
     65 H14        -2.5490   -0.1910    7.4790 h2        1 LIG      0.060700
     66 H15        -0.4830    1.7470    8.4720 h1        1 LIG      0.075700
     67 H16        -3.3000    1.8590    8.2830 ho        1 LIG      0.426000
     68 H17        -0.5210    3.0420    6.4810 h1        1 LIG      0.149700
     69 H18        -3.3310    2.8640    6.7300 ho        1 LIG      0.503000
     70 H19         1.0990    0.0570    7.6250 h4        1 LIG      0.226000
     71 H20         3.1170   -2.1950   10.8310 hn        1 LIG      0.351000
     72 H21         4.4980   -1.4110   10.2110 hn        1 LIG      0.351000
     73 H22         1.2370   -2.0100   11.1720 hc        1 LIG      0.053700
     74 H23         0.9370   -3.1610    9.8860 hc        1 LIG      0.053700
     75 H24        -0.9120   -0.9810   10.8470 h1        1 LIG      0.069700
     76 H25        -1.1760   -3.8110   10.6500 ho        1 LIG      0.411000
     77 H26        -2.4000   -1.7410    8.9870 h2        1 LIG      0.053700
     78 H27        -0.1080   -3.2340    8.2040 ho        1 LIG      0.444000
@<TRIPOS>BOND
     1    1    2 1   
     2    2    3 1   
     3    2    4 1   
     4    2    5 1   
     5    5    6 1   
     6    6    7 1   
     7    6    9 1   
     8    7    8 1   
     9    7   21 1   
    10    9   10 1   
    11    9   20 1   
    12   10   11 1   
    13   10   14 1   
    14   11   12 2   
    15   12   13 1   
    16   13   14 ar  
    17   13   18 ar  
    18   14   15 ar  
    19   15   16 ar  
    20   16   17 ar  
    21   17   18 ar  
    22   18   19 1   
    23   20   21 1   
    24   21   22 1   
    25   22   23 1   
    26   23   24 1   
    27   24   25 1   
    28   24   26 1   
    29   24   27 1   
    30   27   28 1   
    31   28   29 1   
    32   28   30 1   
    33   28   31 1   
    34   31   32 1   
    35   32   33 1   
    36   33   34 1   
    37   33   38 1   
    38   34   35 1   
    39   35   36 1   
    40   35   40 1   
    41   36   37 1   
    42   36   38 1   
    43   38   39 1   
    44   40   41 1   
    45   40   49 1   
    46   41   42 2   
    47   42   43 1   
    48   42   46 1   
    49   43   44 1   
    50   43   45 2   
    51   46   47 1   
    52   47   48 1   
    53   47   49 1   
    54   49   50 1   
    55    6   51 1   
    56    7   52 1   
    57    8   53 1   
    58    9   54 1   
    59   11   55 1   
    60   16   56 1   
    61   19   57 1   
    62   19   58 1   
    63   21   59 1   
    64   22   60 1   
    65   22   61 1   
    66   32   62 1   
    67   32   63 1   
    68   33   64 1   
    69   35   65 1   
    70   36   66 1   
    71   37   67 1   
    72   38   68 1   
    73   39   69 1   
    74   41   70 1   
    75   44   71 1   
    76   44   72 1   
    77   46   73 1   
    78   46   74 1   
    79   47   75 1   
    80   48   76 1   
    81   49   77 1   
    82   50   78 1   
@<TRIPOS>SUBSTRUCTURE
     1 LIG         1 TEMP              0 ****  ****    0 ROOT
