@<TRIPOS>MOLECULE
6T0
   34    36     1     0     0
SMALL
bcc


@<TRIPOS>ATOM
      1 C          -2.1380    1.5450    0.1930 C.a       1 LIG      0.733200
      2 C1         -0.7630    1.6640   -0.1110 C.a       1 LIG     -0.106900
      3 C2         -0.0110   -1.9920   -0.3590 C.a       1 LIG     -0.105000
      4 C3         -0.6860   -0.7800   -0.1820 C.a       1 LIG     -0.160300
      5 C4         -2.0690   -0.7840    0.1260 C.a       1 LIG      0.460600
      6 C5         -2.7340   -2.0130    0.2480 C.a       1 LIG     -0.184300
      7 C6         -2.0470   -3.1770    0.0690 C.a       1 LIG     -0.113000
      8 C7         -0.6900   -3.1690   -0.2330 C.a       1 LIG     -0.152000
      9 C8          4.0870   -1.5050    0.1690 C.3       1 LIG     -0.094600
     10 C9          3.5350    0.6570    1.2920 C.3       1 LIG     -0.094600
     11 N          -2.7240    0.3740    0.2980 N.b       1 LIG     -0.771000
     12 C10        -0.0080    0.5030   -0.3050 C.a       1 LIG     -0.019200
     13 N1          0.0790    2.7120   -0.2760 N.c       1 LIG     -0.546100
     14 C11         1.2730    2.2720   -0.5520 C.d       1 LIG      0.380700
     15 N2          1.2670    0.9110   -0.5810 N.a       1 LIG     -0.139300
     16 N3         -2.8860    2.6930    0.3920 N.h       1 LIG     -0.941500
     17 C12         2.4150    0.0430   -0.8560 C.3       1 LIG      0.040300
     18 C13         2.9730   -0.4990    0.4620 C.3       1 LIG     -0.090700
     19 H           0.9960   -1.9960   -0.5840 H         1 LIG      0.125000
     20 H1         -3.7410   -2.0360    0.4730 H         1 LIG      0.149000
     21 H2         -2.5420   -4.0780    0.1590 H         1 LIG      0.132000
     22 H3         -0.1910   -4.0630   -0.3630 H         1 LIG      0.131000
     23 H4          4.4770   -1.8840    1.0910 H         1 LIG      0.040200
     24 H5          4.8700   -1.0220   -0.3780 H         1 LIG      0.040200
     25 H6          3.6940   -2.3140   -0.4110 H         1 LIG      0.040200
     26 H7          3.9250    0.2780    2.2130 H         1 LIG      0.040200
     27 H8          2.7560    1.3610    1.4970 H         1 LIG      0.040200
     28 H9          4.3170    1.1410    0.7460 H         1 LIG      0.040200
     29 H10         2.1000    2.8660   -0.7230 H         1 LIG      0.070800
     30 H11        -3.8450    2.6250    0.6040 H         1 LIG      0.428300
     31 H12        -2.4590    3.5770    0.3210 H         1 LIG      0.428300
     32 H13         3.1740    0.6040   -1.3600 H         1 LIG      0.063700
     33 H14         2.1040   -0.7730   -1.4740 H         1 LIG      0.063700
     34 H15         2.1900   -0.9830    1.0080 H         1 LIG      0.070700
@<TRIPOS>BOND
     1    1   11 ar  
     2    1    2 ar  
     3    2   13 1   
     4    2   12 ar  
     5    4    3 ar  
     6    5    6 ar  
     7    5    4 ar  
     8    6    7 ar  
     9    7    8 ar  
    10    8    3 ar  
    11    9   18 1   
    12   10   18 1   
    13   11    5 ar  
    14   12    4 ar  
    15   12   15 1   
    16   13   14 2   
    17   14   15 1   
    18   15   17 1   
    19   16    1 1   
    20   18   17 1   
    21    3   19 1   
    22    6   20 1   
    23    7   21 1   
    24    8   22 1   
    25    9   23 1   
    26    9   24 1   
    27    9   25 1   
    28   10   26 1   
    29   10   27 1   
    30   10   28 1   
    31   14   29 1   
    32   16   30 1   
    33   16   31 1   
    34   17   32 1   
    35   17   33 1   
    36   18   34 1   
@<TRIPOS>SUBSTRUCTURE
     1 LIG         1 TEMP              0 ****  ****    0 ROOT
