@<TRIPOS>MOLECULE
C7C
   20    21     1     0     0
SMALL
bcc


@<TRIPOS>ATOM
      1 Cl        -40.9570   26.8000   25.2800 cl        1 LIG     -0.149400
      2 C         -42.5080   26.0740   25.8220 ca        1 LIG     -0.014600
      3 C1        -43.7190   26.6340   25.4110 ca        1 LIG     -0.123500
      4 C2        -44.9270   26.0780   25.8280 ca        1 LIG     -0.121000
      5 C3        -42.4960   24.9520   26.6480 ca        1 LIG     -0.123500
      6 C4        -43.7050   24.3950   27.0610 ca        1 LIG     -0.121000
      7 C5        -44.9190   24.9560   26.6540 ca        1 LIG     -0.189100
      8 S         -46.3860   24.2800   27.1530 ss        1 LIG      0.390200
      9 C6        -46.2750   23.7720   28.8360 cc        1 LIG     -0.146500
     10 C7        -47.6060   23.4470   29.4230 cd        1 LIG      0.137800
     11 C8        -48.6910   22.7200   28.7630 c         1 LIG      0.833100
     12 O         -48.8740   22.8480   27.5300 o         1 LIG     -0.745800
     13 O1        -49.4190   21.9750   29.4560 o         1 LIG     -0.745800
     14 S1        -45.6870   25.0640   29.8840 ss        1 LIG      0.028200
     15 N         -46.7610   24.5540   30.9920 nc        1 LIG     -0.198100
     16 N1        -47.7110   23.8640   30.6010 nd        1 LIG     -0.226000
     17 H         -43.7200   27.4630   24.7960 ha        1 LIG      0.127000
     18 H1        -45.8220   26.4950   25.5270 ha        1 LIG      0.130000
     19 H2        -41.6010   24.5380   26.9510 ha        1 LIG      0.127000
     20 H3        -43.7040   23.5630   27.6710 ha        1 LIG      0.130000
@<TRIPOS>BOND
     1    1    2 1   
     2    2    3 ar  
     3    2    5 ar  
     4    3    4 ar  
     5    4    7 ar  
     6    5    6 ar  
     7    6    7 ar  
     8    7    8 1   
     9    8    9 1   
    10    9   10 ar  
    11    9   14 ar  
    12   10   11 1   
    13   10   16 ar  
    14   11   12 1   
    15   11   13 1   
    16   14   15 ar  
    17   15   16 ar  
    18    3   17 1   
    19    4   18 1   
    20    5   19 1   
    21    6   20 1   
@<TRIPOS>SUBSTRUCTURE
     1 LIG         1 TEMP              0 ****  ****    0 ROOT
