@<TRIPOS>MOLECULE
W2R
   73    77     1     0     0
SMALL
bcc


@<TRIPOS>ATOM
      1 C           3.2610    4.6900   -0.0340 C.a       1 LIG     -0.100000
      2 C1          4.0060    3.8260    0.7450 C.a       1 LIG     -0.180000
      3 C2         -1.3170    1.3170    0.2240 C.a       1 LIG     -0.092000
      4 C3          2.3690    4.1900   -0.9640 C.a       1 LIG     -0.147000
      5 C4         -0.1060    1.8000   -0.2300 C.a       1 LIG     -0.143000
      6 C5         -6.9300    0.0980    2.9830 C.c       1 LIG     -0.298800
      7 C6          2.9720    1.9490   -0.3430 C.a       1 LIG     -0.142000
      8 C7         -2.0140    0.9310   -2.0450 C.a       1 LIG     -0.156000
      9 C8         -7.0510   -0.8460    2.0300 C.d       1 LIG     -0.091100
     10 C9         -4.0450    2.4350    2.6570 C.a       1 LIG      0.631900
     11 C10        -5.7460    0.8860    2.6560 C.a       1 LIG      0.444100
     12 C11        -5.2200    0.3230    1.4790 C.a       1 LIG     -0.303800
     13 C12         3.8640    2.4530    0.5920 C.a       1 LIG      0.068600
     14 C13        -2.2740    0.8780   -0.6820 C.a       1 LIG      0.113600
     15 C14         2.2220    2.8190   -1.1200 C.a       1 LIG      0.104100
     16 C15         0.1540    1.8530   -1.5910 C.a       1 LIG      0.100100
     17 C16        -0.8040    1.4210   -2.4990 C.a       1 LIG      0.021400
     18 C17        -4.0630    0.8920    0.9370 C.a       1 LIG      0.652200
     19 C18         5.0280    0.3970    0.8710 C.        1 LIG      0.751100
     20 C19         8.0350   -3.9770    1.0020 C.3       1 LIG     -0.080400
     21 C20         7.9340   -2.9470   -0.1240 C.3       1 LIG     -0.074900
     22 C21         6.6640   -4.1490    1.6600 C.3       1 LIG     -0.074900
     23 C22         7.4740   -1.6060    0.4510 C.3       1 LIG     -0.091900
     24 C23         6.2030   -2.8080    2.2360 C.3       1 LIG     -0.091900
     25 C24         6.1030   -1.7770    1.1090 C.3       1 LIG      0.086700
     26 C25        -5.8460   -1.5850   -0.0450 C.3       1 LIG      0.038300
     27 C26        -4.7340   -2.5970    0.2410 C.3       1 LIG      0.105400
     28 C27        -3.4150   -5.2560   -2.0150 C.3       1 LIG      0.131400
     29 C28        -3.5270   -4.4210   -0.7380 C.3       1 LIG      0.087400
     30 N          -5.1300    1.9340    3.2070 N.b       1 LIG     -0.668000
     31 N1         -3.5150    1.9340    1.5560 N.b       1 LIG     -0.730000
     32 N2         -6.0370   -0.7260    1.1260 N.a       1 LIG     -0.052400
     33 N3         -3.4990    0.3810   -0.2220 N.h       1 LIG     -0.708300
     34 N4          4.6220    1.5780    1.3780 N.        1 LIG     -0.462100
     35 N5          5.6620   -0.4930    1.6600 N.        1 LIG     -0.534900
     36 O           4.8220    0.1340   -0.2980 O.3       1 LIG     -0.622100
     37 O1         -2.9710   -4.4260   -3.0890 O.h       1 LIG     -0.595800
     38 O2          1.3470    2.3300   -2.0380 O.2       1 LIG     -0.249200
     39 O3         -4.5480   -3.4350   -0.9010 O.2       1 LIG     -0.441600
     40 Cl         -0.4780    1.4880   -4.2020 C.l       1 LIG     -0.074400
     41 H           3.3710    5.7100    0.0790 H         1 LIG      0.138000
     42 H1          4.6690    4.2010    1.4410 H         1 LIG      0.131000
     43 H2         -1.5110    1.2820    1.2370 H         1 LIG      0.155000
     44 H3          1.8120    4.8370   -1.5430 H         1 LIG      0.153000
     45 H4          0.6060    2.1220    0.4440 H         1 LIG      0.167000
     46 H5         -7.5560    0.2380    3.7910 H         1 LIG      0.175000
     47 H6          2.8670    0.9290   -0.4600 H         1 LIG      0.180000
     48 H7         -2.7240    0.6050   -2.7190 H         1 LIG      0.144000
     49 H8         -7.8000   -1.5550    1.9900 H         1 LIG      0.173000
     50 H9         -3.5920    3.2480    3.1020 H         1 LIG      0.055100
     51 H10         8.7410   -3.6400    1.7320 H         1 LIG      0.041700
     52 H11         8.3580   -4.9150    0.6000 H         1 LIG      0.041700
     53 H12         7.2270   -3.2840   -0.8530 H         1 LIG      0.045200
     54 H13         8.8920   -2.8280   -0.5850 H         1 LIG      0.045200
     55 H14         6.7340   -4.8700    2.4470 H         1 LIG      0.045200
     56 H15         5.9580   -4.4860    0.9300 H         1 LIG      0.045200
     57 H16         7.4040   -0.8850   -0.3370 H         1 LIG      0.046200
     58 H17         8.1810   -1.2690    1.1810 H         1 LIG      0.046200
     59 H18         6.9090   -2.4710    2.9660 H         1 LIG      0.046200
     60 H19         5.2450   -2.9280    2.6960 H         1 LIG      0.046200
     61 H20         5.3970   -2.1140    0.3790 H         1 LIG      0.092700
     62 H21        -5.5740   -0.9840   -0.8870 H         1 LIG      0.070200
     63 H22        -6.7560   -2.1060   -0.2580 H         1 LIG      0.070200
     64 H23        -5.0060   -3.1980    1.0840 H         1 LIG      0.050700
     65 H24        -3.8240   -2.0760    0.4540 H         1 LIG      0.050700
     66 H25        -4.3720   -5.6700   -2.2560 H         1 LIG      0.054200
     67 H26        -2.7120   -6.0480   -1.8630 H         1 LIG      0.054200
     68 H27        -2.5920   -3.9380   -0.5450 H         1 LIG      0.044700
     69 H28        -3.7760   -5.0590    0.0840 H         1 LIG      0.044700
     70 H29        -3.9600   -0.3310   -0.7210 H         1 LIG      0.410800
     71 H30         4.8590    1.8250    2.3010 H         1 LIG      0.307500
     72 H31         5.8290   -0.2800    2.6070 H         1 LIG      0.288500
     73 H32        -3.6080   -3.7080   -3.2270 H         1 LIG      0.411000
@<TRIPOS>BOND
     1    2    1 ar  
     2    4    1 ar  
     3    5    3 ar  
     4    7   13 ar  
     5    7   15 ar  
     6    8   14 ar  
     7    9    6 2   
     8   10   30 ar  
     9   11    6 1   
    10   12   32 1   
    11   12   11 ar  
    12   13    2 ar  
    13   14    3 ar  
    14   14   33 1   
    15   15    4 ar  
    16   16    5 ar  
    17   17   16 ar  
    18   17    8 ar  
    19   18   12 ar  
    20   19   34 1   
    21   20   21 1   
    22   21   23 1   
    23   22   20 1   
    24   22   24 1   
    25   24   25 1   
    26   25   23 1   
    27   25   35 1   
    28   26   32 1   
    29   26   27 1   
    30   28   29 1   
    31   30   11 ar  
    32   31   18 ar  
    33   31   10 ar  
    34   32    9 1   
    35   33   18 1   
    36   34   13 1   
    37   35   19 1   
    38   36   19 2   
    39   37   28 1   
    40   38   15 1   
    41   38   16 1   
    42   39   27 1   
    43   39   29 1   
    44   40   17 1   
    45    1   41 1   
    46    2   42 1   
    47    3   43 1   
    48    4   44 1   
    49    5   45 1   
    50    6   46 1   
    51    7   47 1   
    52    8   48 1   
    53    9   49 1   
    54   10   50 1   
    55   20   51 1   
    56   20   52 1   
    57   21   53 1   
    58   21   54 1   
    59   22   55 1   
    60   22   56 1   
    61   23   57 1   
    62   23   58 1   
    63   24   59 1   
    64   24   60 1   
    65   25   61 1   
    66   26   62 1   
    67   26   63 1   
    68   27   64 1   
    69   27   65 1   
    70   28   66 1   
    71   28   67 1   
    72   29   68 1   
    73   29   69 1   
    74   33   70 1   
    75   34   71 1   
    76   35   72 1   
    77   37   73 1   
@<TRIPOS>SUBSTRUCTURE
     1 LIG         1 TEMP              0 ****  ****    0 ROOT
