@<TRIPOS>MOLECULE
CSN
   19    19     1     0     0
SMALL
bcc


@<TRIPOS>ATOM
      1 S           2.1800   -0.7680   -0.1440 S.6       1 LIG      1.716300
      2 O           1.4500   -0.1980    1.0640 O.2       1 LIG     -0.524800
      3 O1          1.1710   -1.3180   -0.9800 O.3       1 LIG     -0.730200
      4 O2          3.2940   -1.4790    0.3770 O.3       1 LIG     -0.730200
      5 O3          2.7630    0.4050   -0.9190 O.3       1 LIG     -0.730200
      6 O4          1.3660    2.4450    0.2910 O.h       1 LIG     -0.513100
      7 O5         -3.2210   -1.8860    0.3270 O.3       1 LIG     -0.242500
      8 O6         -4.2960   -0.2360   -0.4280 O.3       1 LIG     -0.242500
      9 C          -0.8560   -0.4350    0.5320 C.a       1 LIG     -0.105000
     10 N          -3.2560   -0.7180   -0.0170 N.o       1 LIG      0.317200
     11 C1         -0.9390    2.2210   -0.2510 C.a       1 LIG     -0.178000
     12 C2          0.2900    0.3410    0.6040 C.a       1 LIG      0.179100
     13 C3         -2.0760    1.4400   -0.3260 C.a       1 LIG     -0.089000
     14 C4          0.2460    1.6770    0.2160 C.a       1 LIG      0.126100
     15 C5         -2.0350    0.1140    0.0650 C.a       1 LIG     -0.199200
     16 H           1.3360    3.3440    0.0300 H         1 LIG      0.479000
     17 H1         -0.8290   -1.4230    0.8270 H         1 LIG      0.175000
     18 H2         -0.9730    3.2100   -0.5430 H         1 LIG      0.143000
     19 H3         -2.9580    1.8470   -0.6750 H         1 LIG      0.149000
@<TRIPOS>BOND
     1    1    2 1   
     2    1    3 1   
     3    1    4 1   
     4    1    5 1   
     5    2   12 1   
     6    6   14 1   
     7    7   10 1   
     8    8   10 1   
     9    9   12 ar  
    10    9   15 ar  
    11   10   15 1   
    12   11   13 ar  
    13   11   14 ar  
    14   12   14 ar  
    15   13   15 ar  
    16    6   16 1   
    17    9   17 1   
    18   11   18 1   
    19   13   19 1   
@<TRIPOS>SUBSTRUCTURE
     1 LIG         1 TEMP              0 ****  ****    0 ROOT
