@<TRIPOS>MOLECULE
1QK
   58    61     1     0     0
SMALL
bcc


@<TRIPOS>ATOM
      1 C          -0.0530   -0.6930    0.0860 cc        1 LIG     -0.241300
      2 N          -2.1330    0.4420   -0.1600 nh        1 LIG     -0.718600
      3 C1         -2.8460   -0.8380   -0.1320 c3        1 LIG      0.200100
      4 C2         -4.9190   -0.5560   -1.5220 ca        1 LIG     -0.012000
      5 C3         -7.0040   -0.1410   -0.4360 ca        1 LIG     -0.020300
      6 C4          1.4120   -3.1180    0.2280 c3        1 LIG      0.175800
      7 C5          3.6250   -4.0330   -0.4830 c3        1 LIG     -0.079400
      8 C6          3.5230   -1.7670    0.5630 c3        1 LIG      0.198500
      9 C7          5.5210   -0.2770    0.7400 c3        1 LIG      0.128400
     10 C8          3.7710    3.3670   -1.3060 c3        1 LIG     -0.091100
     11 C9          3.0990    3.5090    0.0610 c3        1 LIG     -0.009200
     12 C10         1.6830    3.0000   -0.0200 cc        1 LIG     -0.231800
     13 C11         0.5390    3.7760   -0.1650 cc        1 LIG      0.394500
     14 N1         -0.5090    2.9870   -0.1980 nd        1 LIG     -0.606100
     15 N2         -0.0810    1.6600   -0.0750 na        1 LIG     -0.002800
     16 C12         1.2850    1.6720    0.0360 cd        1 LIG      0.379500
     17 N3          1.9700    0.5260    0.1640 nd        1 LIG     -0.656000
     18 C13         1.3460   -0.6390    0.1910 cc        1 LIG      0.634200
     19 C14        -0.7580    0.4680   -0.0500 cd        1 LIG      0.165300
     20 C15        -4.3260   -0.5910   -0.2690 ca        1 LIG     -0.081300
     21 C16        -6.2840   -0.3260   -1.6010 ca        1 LIG     -0.135000
     22 N4         -6.4070   -0.1820    0.7400 na        1 LIG      0.122800
     23 C17        -5.1100   -0.3970    0.8520 ca        1 LIG     -0.002300
     24 O          -7.1780    0.0130    1.9120 oh        1 LIG     -0.377200
     25 N5          2.0740   -1.8100    0.3240 nh        1 LIG     -0.719300
     26 C18         2.1360   -3.9600   -0.8270 c3        1 LIG     -0.109400
     27 C19         4.2230   -2.6250   -0.4960 c3        1 LIG     -0.108400
     28 C20         4.0170   -0.3220    0.4610 c3        1 LIG     -0.121400
     29 O1          5.9590    1.0830    0.7690 oh        1 LIG     -0.591800
     30 H          -0.5430   -1.6010    0.1110 ha        1 LIG      0.170000
     31 H1         -2.6350    1.2830   -0.2570 hn        1 LIG      0.404800
     32 H2         -2.6510   -1.3350    0.7960 h1        1 LIG      0.095700
     33 H3         -2.5100   -1.4510   -0.9420 h1        1 LIG      0.095700
     34 H4         -4.3570   -0.6980   -2.3760 ha        1 LIG      0.197000
     35 H5         -8.0200    0.0310   -0.4860 h4        1 LIG      0.224000
     36 H6          1.4550   -3.6140    1.1750 h1        1 LIG      0.053700
     37 H7          0.3870   -2.9880   -0.0510 h1        1 LIG      0.053700
     38 H8          4.1280   -4.6410   -1.2060 hc        1 LIG      0.049700
     39 H9          3.7450   -4.4620    0.4900 hc        1 LIG      0.049700
     40 H10         3.7420   -2.1440    1.5400 h1        1 LIG      0.065700
     41 H11         6.0430   -0.8030   -0.0320 h1        1 LIG      0.047700
     42 H12         5.7230   -0.7370    1.6850 h1        1 LIG      0.047700
     43 H13         4.7770    3.7280   -1.2480 hc        1 LIG      0.038700
     44 H14         3.2280    3.9370   -2.0310 hc        1 LIG      0.038700
     45 H15         3.7780    2.3370   -1.5950 hc        1 LIG      0.038700
     46 H16         3.0920    4.5390    0.3490 hc        1 LIG      0.060700
     47 H17         3.6420    2.9390    0.7860 hc        1 LIG      0.060700
     48 H18         0.5170    4.8050   -0.2350 h4        1 LIG      0.062800
     49 H19        -6.7560   -0.2930   -2.5180 ha        1 LIG      0.207000
     50 H20        -4.6760   -0.4200    1.7880 h4        1 LIG      0.236000
     51 H21        -8.1000    0.1670    1.8460 ho        1 LIG      0.466000
     52 H22         2.0140   -3.5090   -1.7900 hc        1 LIG      0.053200
     53 H23         1.7230   -4.9470   -0.8420 hc        1 LIG      0.053200
     54 H24         5.2690   -2.6790   -0.2780 hc        1 LIG      0.061200
     55 H25         4.0840   -2.1860   -1.4620 hc        1 LIG      0.061200
     56 H26         3.8250    0.0520   -0.5230 hc        1 LIG      0.061700
     57 H27         3.5030    0.2830    1.1780 hc        1 LIG      0.061700
     58 H28         5.7760    1.5000   -0.0870 ho        1 LIG      0.400000
@<TRIPOS>BOND
     1    2    3 1   
     2    3   20 1   
     3    4   20 ar  
     4    4   21 ar  
     5    5   22 ar  
     6    6   26 1   
     7    7   26 1   
     8    8   25 1   
     9    8   27 1   
    10    9   28 1   
    11   11   10 1   
    12   11   12 1   
    13   12   16 2   
    14   13   12 1   
    15   13   14 2   
    16   14   15 1   
    17   15   19 ar  
    18   16   15 ar  
    19   16   17 ar  
    20   17   18 ar  
    21   18    1 ar  
    22   18   25 1   
    23   19    2 1   
    24   19    1 ar  
    25   20   23 ar  
    26   21    5 ar  
    27   22   24 1   
    28   23   22 ar  
    29   25    6 1   
    30   27    7 1   
    31   28    8 1   
    32   29    9 1   
    33    1   30 1   
    34    2   31 1   
    35    3   32 1   
    36    3   33 1   
    37    4   34 1   
    38    5   35 1   
    39    6   36 1   
    40    6   37 1   
    41    7   38 1   
    42    7   39 1   
    43    8   40 1   
    44    9   41 1   
    45    9   42 1   
    46   10   43 1   
    47   10   44 1   
    48   10   45 1   
    49   11   46 1   
    50   11   47 1   
    51   13   48 1   
    52   21   49 1   
    53   23   50 1   
    54   24   51 1   
    55   26   52 1   
    56   26   53 1   
    57   27   54 1   
    58   27   55 1   
    59   28   56 1   
    60   28   57 1   
    61   29   58 1   
@<TRIPOS>SUBSTRUCTURE
     1 LIG         1 TEMP              0 ****  ****    0 ROOT
