@<TRIPOS>MOLECULE
4E9
   63    69     1     0     0
SMALL
bcc


@<TRIPOS>ATOM
      1 O          -2.2450    3.8520   -0.9090 O.2       1 LIG     -0.556200
      2 C          -1.9590    3.3280    0.3890 C.3       1 LIG      0.229400
      3 C1         -3.0230    2.2960    0.7690 C.3       1 LIG      0.056100
      4 O1         -2.9390    1.1390   -0.0900 O.2       1 LIG     -0.452600
      5 C2         -3.5720    0.0520    0.6060 C.3       1 LIG      0.245800
      6 N          -2.8920   -1.2060    0.2880 N.a       1 LIG     -0.197900
      7 C3         -3.4950   -2.4030   -0.0030 C.c       1 LIG      0.054800
      8 N1         -4.7680   -2.8060   -0.0910 N.c       1 LIG     -0.615100
      9 C4         -5.0680   -4.0490   -0.3960 C.d       1 LIG      0.589800
     10 N2         -4.1040   -4.9830   -0.6360 N.        1 LIG     -0.493400
     11 C5         -2.7970   -4.6490   -0.5650 C.        1 LIG      0.639000
     12 C6         -2.4610   -3.3150   -0.2390 C.d       1 LIG      0.226800
     13 N3         -1.2890   -2.6480   -0.0850 N.d       1 LIG     -0.663000
     14 C7         -1.5380   -1.4000    0.2210 C.c       1 LIG      0.694400
     15 C8         -3.4540    0.3450    2.1150 C.3       1 LIG     -0.130400
     16 C9         -2.7440    1.7190    2.1800 C.3       1 LIG      0.122100
     17 O2         -3.3250    2.5440    3.1930 O.h       1 LIG     -0.662800
     18 P          -1.3290    4.9640   -1.6270 P.5       1 LIG      1.342900
     19 O3         -1.8710    5.2220   -3.1210 O.3       1 LIG     -0.926833
     20 O4         -1.3940    6.3370   -0.7880 O.3       1 LIG     -0.926833
     21 O5         -1.9280   -5.4780   -0.7770 O.3       1 LIG     -0.638500
     22 N4         -6.3880   -4.4170   -0.4750 N.h       1 LIG     -0.864800
     23 N5         -0.5810   -0.4270    0.4450 N.h       1 LIG     -0.727300
     24 C10         0.7590   -0.7100    0.2290 C.a       1 LIG      0.242600
     25 C11         1.7580    0.1440    0.7500 C.a       1 LIG     -0.101000
     26 C12         1.4190    1.2860    1.4890 C.a       1 LIG     -0.036000
     27 C13         2.4050    2.1060    1.9880 C.a       1 LIG     -0.135000
     28 C14         3.7440    1.8230    1.7720 C.a       1 LIG     -0.030000
     29 C15         4.1170    0.6970    1.0420 C.a       1 LIG     -0.225600
     30 C16         5.5370    0.3940    0.8110 C.        1 LIG      0.598300
     31 O6          6.4050    1.1240    1.2560 O.3       1 LIG     -0.596100
     32 C17         5.8940   -0.8040    0.0360 C.a       1 LIG     -0.164600
     33 C18         7.2330   -1.1220   -0.2030 C.a       1 LIG     -0.076000
     34 C19         7.5490   -2.2470   -0.9320 C.a       1 LIG     -0.178000
     35 C20         6.5470   -3.0680   -1.4310 C.a       1 LIG     -0.116000
     36 C21         5.2210   -2.7710   -1.2070 C.a       1 LIG     -0.158000
     37 C22         4.8770   -1.6360   -0.4710 C.a       1 LIG      0.057000
     38 C23         3.4630   -1.3070   -0.2230 C.a       1 LIG     -0.114000
     39 C24         2.4540   -2.1300   -0.7230 C.a       1 LIG     -0.056000
     40 C25         3.1200   -0.1590    0.5200 C.a       1 LIG      0.040000
     41 C26         1.1240   -1.8340   -0.4940 C.a       1 LIG     -0.215000
     42 O7          0.0710    4.4870   -1.6860 O.3       1 LIG     -0.926833
     43 H          -1.9630    4.1240    1.1040 H         1 LIG     -0.003800
     44 H1         -0.9960    2.8610    0.3810 H         1 LIG     -0.003800
     45 H2         -3.9650    2.8000    0.7010 H         1 LIG      0.057700
     46 H3         -4.5980   -0.0390    0.3160 H         1 LIG      0.071700
     47 H4         -4.3620   -5.9060   -0.8620 H         1 LIG      0.325500
     48 H5         -2.8700   -0.4070    2.6030 H         1 LIG      0.059700
     49 H6         -4.4040    0.3510    2.6070 H         1 LIG      0.059700
     50 H7         -1.7040    1.6580    2.4230 H         1 LIG      0.149700
     51 H8         -4.2760    2.6390    3.0270 H         1 LIG      0.489000
     52 H9         -7.0950   -3.7530   -0.3040 H         1 LIG      0.383800
     53 H10        -6.6280   -5.3440   -0.7020 H         1 LIG      0.383800
     54 H11        -0.8510    0.4670    0.7580 H         1 LIG      0.502800
     55 H12         0.4270    1.5120    1.6590 H         1 LIG      0.231000
     56 H13         2.1430    2.9440    2.5310 H         1 LIG      0.230000
     57 H14         4.4690    2.4500    2.1540 H         1 LIG      0.142000
     58 H15         7.9830   -0.5160    0.1650 H         1 LIG      0.146000
     59 H16         8.5380   -2.4810   -1.1090 H         1 LIG      0.116000
     60 H17         6.7980   -3.9090   -1.9750 H         1 LIG      0.113000
     61 H18         4.4830   -3.3870   -1.5830 H         1 LIG      0.128000
     62 H19         2.7040   -2.9690   -1.2700 H         1 LIG      0.116000
     63 H20         0.3920   -2.4590   -0.8670 H         1 LIG      0.149000
@<TRIPOS>BOND
     1    1    2 1   
     2    1   18 1   
     3    2    3 1   
     4    3    4 1   
     5    3   16 1   
     6    4    5 1   
     7    5    6 1   
     8    5   15 1   
     9    6    7 ar  
    10    6   14 ar  
    11    7    8 1   
    12    7   12 ar  
    13    8    9 2   
    14    9   10 1   
    15    9   22 1   
    16   10   11 1   
    17   11   12 1   
    18   11   21 2   
    19   12   13 ar  
    20   13   14 ar  
    21   14   23 1   
    22   15   16 1   
    23   16   17 1   
    24   18   19 1   
    25   18   20 1   
    26   18   42 1   
    27   23   24 1   
    28   24   25 ar  
    29   24   41 ar  
    30   25   26 ar  
    31   25   40 ar  
    32   26   27 ar  
    33   27   28 ar  
    34   28   29 ar  
    35   29   30 1   
    36   29   40 ar  
    37   30   31 2   
    38   30   32 1   
    39   32   33 ar  
    40   32   37 ar  
    41   33   34 ar  
    42   34   35 ar  
    43   35   36 ar  
    44   36   37 ar  
    45   37   38 1   
    46   38   39 ar  
    47   38   40 ar  
    48   39   41 ar  
    49    2   43 1   
    50    2   44 1   
    51    3   45 1   
    52    5   46 1   
    53   10   47 1   
    54   15   48 1   
    55   15   49 1   
    56   16   50 1   
    57   17   51 1   
    58   22   52 1   
    59   22   53 1   
    60   23   54 1   
    61   26   55 1   
    62   27   56 1   
    63   28   57 1   
    64   33   58 1   
    65   34   59 1   
    66   35   60 1   
    67   36   61 1   
    68   39   62 1   
    69   41   63 1   
@<TRIPOS>SUBSTRUCTURE
     1 LIG         1 TEMP              0 ****  ****    0 ROOT
