@<TRIPOS>MOLECULE
ACB
   18    17     1     0     0
SMALL
bcc


@<TRIPOS>ATOM
      1 C           1.9150   -0.0190    0.0170 C.        1 LIG      0.909600
      2 O           2.5520   -0.6360   -0.8030 O.3       1 LIG     -0.808800
      3 OXT         2.4470    1.0620    0.6070 O.3       1 LIG     -0.808800
      4 CA          0.5190   -0.4610    0.3740 C.3       1 LIG     -0.005500
      5 N           0.3370   -1.8680   -0.0100 N.4       1 LIG     -0.871600
      6 C1         -0.4970    0.4060   -0.3720 C.3       1 LIG     -0.176700
      7 C2         -1.8930   -0.0360   -0.0150 C.        1 LIG      0.898600
      8 O1         -2.0590   -0.9510    0.7560 O.3       1 LIG     -0.827800
      9 C3         -0.3080    1.8710    0.0270 C.3       1 LIG     -0.072100
     10 O2         -2.9530    0.5870   -0.5550 O.3       1 LIG     -0.827800
     11 HA          0.3710   -0.3570    1.4290 H         1 LIG      0.074700
     12 H1          0.4780   -1.9670   -1.0150 H         1 LIG      0.445467
     13 H2         -0.6080   -2.1670    0.2320 H         1 LIG      0.445467
     14 H3          1.0140   -2.4460    0.4870 H         1 LIG      0.445467
     15 H          -0.3490    0.3020   -1.4270 H         1 LIG      0.055700
     16 H4         -0.4560    1.9750    1.0810 H         1 LIG      0.040700
     17 H5         -1.0190    2.4770   -0.4950 H         1 LIG      0.040700
     18 H6          0.6830    2.1850   -0.2270 H         1 LIG      0.040700
@<TRIPOS>BOND
     1    1    2 1   
     2    1    3 1   
     3    1    4 1   
     4    4    5 1   
     5    4    6 1   
     6    6    7 1   
     7    6    9 1   
     8    7    8 1   
     9    7   10 1   
    10    4   11 1   
    11    5   12 1   
    12    5   13 1   
    13    5   14 1   
    14    6   15 1   
    15    9   16 1   
    16    9   17 1   
    17    9   18 1   
@<TRIPOS>SUBSTRUCTURE
     1 LIG         1 TEMP              0 ****  ****    0 ROOT
