@<TRIPOS>MOLECULE
LDT
   35    36     1     0     0
SMALL
bcc


@<TRIPOS>ATOM
      1 C          -1.7780    0.1280    4.4750 C.a       1 LIG     -0.253000
      2 C1         -2.0660    0.1640    1.7090 C.a       1 LIG     -0.030000
      3 C2         -0.6500    0.0880    3.6720 C.a       1 LIG      0.202100
      4 C3         -3.0360    0.1850    3.9010 C.a       1 LIG      0.164900
      5 C4         -3.1770    0.2030    2.5200 C.a       1 LIG     -0.227000
      6 C5         -0.7890    0.1110    2.2760 C.a       1 LIG     -0.170600
      7 Br         -0.2850    0.1440   -6.6990 B.r       1 LIG     -0.115100
      8 F          -4.1330    0.2240    4.6890 F.        1 LIG     -0.151900
      9 C6          0.4030    0.0700    1.4130 C.        1 LIG      0.489000
     10 C7          1.4510    0.0410   -0.7850 C.3       1 LIG      0.111300
     11 F1         -0.1880   -1.9440   -1.9260 F.        1 LIG     -0.121900
     12 O           0.5830    0.0330    4.2330 O.2       1 LIG     -0.320900
     13 S           1.9640    0.0050    2.1120 S.        1 LIG     -0.681400
     14 N           0.2650    0.0830    0.0720 N.        1 LIG     -0.424900
     15 C8          0.3930    0.0290    5.6490 C.3       1 LIG     -0.010600
     16 C9          1.0260    0.0660   -2.2310 C.a       1 LIG     -0.110300
     17 C10         0.2460    0.1110   -4.8850 C.a       1 LIG     -0.001900
     18 C11         1.4450    1.0910   -3.0570 C.a       1 LIG     -0.101000
     19 C12         0.2200   -0.9410   -2.7330 C.a       1 LIG      0.144900
     20 C13        -0.1730   -0.9150   -4.0600 C.a       1 LIG     -0.162000
     21 C14         1.0550    1.1150   -4.3830 C.a       1 LIG     -0.133000
     22 C15         1.7340   -0.0310    6.3350 C.        1 LIG      0.921600
     23 O1          1.8010   -0.0450    7.6760 O.3       1 LIG     -0.820800
     24 O2          2.7480   -0.0670    5.6790 O.3       1 LIG     -0.820800
     25 H          -1.6800    0.1150    5.5020 H         1 LIG      0.158000
     26 H1         -2.1750    0.1740    0.6830 H         1 LIG      0.166000
     27 H2         -4.1190    0.2460    2.1000 H         1 LIG      0.140000
     28 H3          2.0010   -0.8560   -0.5900 H         1 LIG      0.095200
     29 H4          2.0700    0.8890   -0.5800 H         1 LIG      0.095200
     30 H5         -0.6330    0.1210   -0.3310 H         1 LIG      0.397500
     31 H6         -0.1890   -0.8240    5.9280 H         1 LIG      0.040700
     32 H7         -0.1190    0.9210    5.9430 H         1 LIG      0.040700
     33 H8          2.0500    1.8390   -2.6840 H         1 LIG      0.193000
     34 H9         -0.7790   -1.6620   -4.4330 H         1 LIG      0.153000
     35 H10         1.3670    1.8820   -4.9990 H         1 LIG      0.143000
@<TRIPOS>BOND
     1    1    3 ar  
     2    1    4 ar  
     3    2    5 ar  
     4    2    6 ar  
     5    3    6 ar  
     6    3   12 1   
     7    4    5 ar  
     8    4    8 1   
     9    6    9 1   
    10    7   17 1   
    11    9   13 2   
    12    9   14 1   
    13   10   14 1   
    14   10   16 1   
    15   11   19 1   
    16   12   15 1   
    17   15   22 1   
    18   16   18 ar  
    19   16   19 ar  
    20   17   20 ar  
    21   17   21 ar  
    22   18   21 ar  
    23   19   20 ar  
    24   22   23 1   
    25   22   24 1   
    26    1   25 1   
    27    2   26 1   
    28    5   27 1   
    29   10   28 1   
    30   10   29 1   
    31   14   30 1   
    32   15   31 1   
    33   15   32 1   
    34   18   33 1   
    35   20   34 1   
    36   21   35 1   
@<TRIPOS>SUBSTRUCTURE
     1 LIG         1 TEMP              0 ****  ****    0 ROOT
