@<TRIPOS>MOLECULE
FPF
   49    48     1     0     0
SMALL
bcc


@<TRIPOS>ATOM
      1 C           1.5270    1.8070   -0.6160 c3        1 LIG      0.237600
      2 O           2.3300    0.6810   -0.2560 os        1 LIG     -0.554200
      3 C1          0.0710    1.4240   -0.5590 c2        1 LIG      0.114300
      4 F          -0.4140    0.4850   -1.4000 f         1 LIG     -0.244500
      5 C2         -0.7270    2.0030    0.3090 c2        1 LIG     -0.224400
      6 C3         -0.1670    2.9760    1.3140 c3        1 LIG     -0.057900
      7 C4         -2.2020    1.6950    0.2990 c3        1 LIG     -0.017200
      8 C5         -2.4990    0.5900    1.3140 c3        1 LIG     -0.065200
      9 C6         -3.9740    0.2820    1.3040 c2        1 LIG     -0.112200
     10 C7         -4.3910   -0.9190    0.9890 c2        1 LIG     -0.194400
     11 C8         -3.4020   -1.9660    0.5440 c3        1 LIG     -0.046900
     12 C9         -5.8570   -1.2540    1.0720 c3        1 LIG     -0.021200
     13 C10        -6.5020   -1.0670   -0.3030 c3        1 LIG     -0.054200
     14 C11        -7.9690   -1.4020   -0.2200 c2        1 LIG     -0.148200
     15 C12        -8.8620   -0.5400   -0.6370 c2        1 LIG     -0.158400
     16 C13        -8.4250    0.7100   -1.3560 c3        1 LIG     -0.049400
     17 C14       -10.3280   -0.7990   -0.3990 c3        1 LIG     -0.049400
     18 P           3.9390    0.7300   -0.2100 p5        1 LIG      1.569800
     19 O1          4.4560    1.1920   -1.5180 o         1 LIG     -0.917500
     20 O2          4.4120    1.7490    0.9440 o         1 LIG     -0.917500
     21 O3          4.5120   -0.7410    0.1050 os        1 LIG     -0.798800
     22 P1          5.9650   -1.4240   -0.0140 p5        1 LIG      1.455900
     23 O4          6.8610   -1.0040    1.2570 o         1 LIG     -0.956167
     24 O5          5.8040   -3.0260   -0.0510 o         1 LIG     -0.956167
     25 O6          6.6260   -0.9660   -1.2560 o         1 LIG     -0.956167
     26 H           1.7120    2.6100    0.0670 h1        1 LIG      0.040200
     27 H1          1.7750    2.1190   -1.6090 h1        1 LIG      0.040200
     28 H2          0.8890    3.0680    1.1710 hc        1 LIG      0.055033
     29 H3         -0.3630    2.6190    2.3040 hc        1 LIG      0.055033
     30 H4         -0.6300    3.9320    1.1810 hc        1 LIG      0.055033
     31 H5         -2.4920    1.3690   -0.6780 hc        1 LIG      0.016200
     32 H6         -2.7520    2.5750    0.5590 hc        1 LIG      0.016200
     33 H7         -2.2090    0.9160    2.2910 hc        1 LIG      0.069200
     34 H8         -1.9490   -0.2900    1.0540 hc        1 LIG      0.069200
     35 H9         -4.6560    1.0180    1.5460 ha        1 LIG      0.106000
     36 H10        -2.4160   -1.5500    0.5470 hc        1 LIG      0.036700
     37 H11        -3.6490   -2.2920   -0.4450 hc        1 LIG      0.036700
     38 H12        -3.4390   -2.7990    1.2140 hc        1 LIG      0.036700
     39 H13        -6.3310   -0.6060    1.7790 hc        1 LIG      0.029700
     40 H14        -5.9730   -2.2710    1.3850 hc        1 LIG      0.029700
     41 H15        -6.0280   -1.7150   -1.0100 hc        1 LIG      0.056700
     42 H16        -6.3860   -0.0510   -0.6160 hc        1 LIG      0.056700
     43 H17        -8.2700   -2.3110    0.1660 ha        1 LIG      0.114000
     44 H18        -7.3580    0.7230   -1.4320 hc        1 LIG      0.033700
     45 H19        -8.7540    1.5690   -0.8100 hc        1 LIG      0.033700
     46 H20        -8.8530    0.7260   -2.3370 hc        1 LIG      0.033700
     47 H21       -10.4470   -1.7260    0.1210 hc        1 LIG      0.033700
     48 H22       -10.8380   -0.8490   -1.3380 hc        1 LIG      0.033700
     49 H23       -10.7400   -0.0050    0.1890 hc        1 LIG      0.033700
@<TRIPOS>BOND
     1    1    3 1   
     2    2    1 1   
     3    3    4 1   
     4    5    3 2   
     5    5    7 1   
     6    6    5 1   
     7    8    7 1   
     8    9    8 1   
     9   10    9 2   
    10   10   11 1   
    11   12   10 1   
    12   13   12 1   
    13   13   14 1   
    14   15   14 2   
    15   15   16 1   
    16   17   15 1   
    17   18    2 1   
    18   18   21 1   
    19   19   18 1   
    20   20   18 1   
    21   22   21 1   
    22   22   23 1   
    23   22   24 1   
    24   25   22 1   
    25    1   26 1   
    26    1   27 1   
    27    6   28 1   
    28    6   29 1   
    29    6   30 1   
    30    7   31 1   
    31    7   32 1   
    32    8   33 1   
    33    8   34 1   
    34    9   35 1   
    35   11   36 1   
    36   11   37 1   
    37   11   38 1   
    38   12   39 1   
    39   12   40 1   
    40   13   41 1   
    41   13   42 1   
    42   14   43 1   
    43   16   44 1   
    44   16   45 1   
    45   16   46 1   
    46   17   47 1   
    47   17   48 1   
    48   17   49 1   
@<TRIPOS>SUBSTRUCTURE
     1 LIG         1 TEMP              0 ****  ****    0 ROOT
