@<TRIPOS>MOLECULE
35G
   34    37     1     0     0
SMALL
bcc


@<TRIPOS>ATOM
      1 P          -4.4910   -0.2370    0.4060 P.5       1 LIG      1.416800
      2 O          -5.4760   -1.3190    0.1820 O.3       1 LIG     -0.800000
      3 O1         -4.9280    0.6490    1.6770 O.3       1 LIG     -0.800000
      4 O2         -4.3880    0.7000   -0.9150 O.2       1 LIG     -0.567200
      5 C          -3.1690    1.4280   -1.1990 C.3       1 LIG      0.197400
      6 C1         -2.0310    0.4320   -1.0900 C.3       1 LIG      0.032100
      7 O3         -0.7270    0.9170   -1.4000 O.2       1 LIG     -0.414600
      8 C2         -1.8920   -0.0190    0.3890 C.3       1 LIG      0.105100
      9 O4         -3.0090   -0.8740    0.6530 O.2       1 LIG     -0.540200
     10 C3         -0.5350   -0.7330    0.3500 C.3       1 LIG      0.117100
     11 O5         -0.7080   -2.1300    0.1040 O.h       1 LIG     -0.609800
     12 C4          0.1900   -0.0550   -0.8400 C.3       1 LIG      0.218800
     13 N           1.4020    0.6180   -0.3670 N.a       1 LIG     -0.190900
     14 C5          1.5100    1.9300   -0.0080 C.c       1 LIG      0.428400
     15 N1          2.7300    2.1870    0.3620 N.d       1 LIG     -0.609000
     16 C6          3.4760    1.0600    0.2630 C.d       1 LIG      0.183800
     17 C7          4.8320    0.7500    0.5230 C.        1 LIG      0.649000
     18 O6          5.6010    1.6030    0.9310 O.3       1 LIG     -0.620500
     19 N2          5.2530   -0.5160    0.3070 N.        1 LIG     -0.505400
     20 C8          4.3850   -1.4620   -0.1490 C.d       1 LIG      0.642800
     21 N3          4.8400   -2.7400   -0.3580 N.h       1 LIG     -0.876800
     22 N4          3.1230   -1.1860   -0.3950 N.c       1 LIG     -0.644100
     23 C9          2.6330    0.0430   -0.2000 C.c       1 LIG      0.098800
     24 H          -3.0370    2.2180   -0.4890 H         1 LIG      0.044200
     25 H1         -3.2020    1.8690   -2.1730 H         1 LIG      0.044200
     26 H2         -2.3020   -0.3230   -1.7980 H         1 LIG      0.065700
     27 H3         -1.9060    0.7270    1.1560 H         1 LIG      0.087700
     28 H4          0.0060   -0.6580    1.2700 H         1 LIG      0.074700
     29 H5         -1.1960   -2.2540   -0.7250 H         1 LIG      0.442000
     30 H6          0.4750   -0.7780   -1.5750 H         1 LIG      0.109700
     31 H7          0.7390    2.6160   -0.0270 H         1 LIG      0.088100
     32 H8          6.1920   -0.7560    0.4800 H         1 LIG      0.328500
     33 H9          5.7820   -2.9630   -0.1790 H         1 LIG      0.401300
     34 H10         4.2240   -3.4340   -0.6870 H         1 LIG      0.401300
@<TRIPOS>BOND
     1    1    2 1   
     2    1    3 1   
     3    1    4 1   
     4    1    9 1   
     5    4    5 1   
     6    5    6 1   
     7    6    7 1   
     8    6    8 1   
     9    7   12 1   
    10    8    9 1   
    11    8   10 1   
    12   10   11 1   
    13   10   12 1   
    14   12   13 1   
    15   13   14 ar  
    16   13   23 ar  
    17   14   15 ar  
    18   15   16 ar  
    19   16   17 1   
    20   16   23 ar  
    21   17   18 2   
    22   17   19 1   
    23   19   20 1   
    24   20   21 1   
    25   20   22 2   
    26   22   23 1   
    27    5   24 1   
    28    5   25 1   
    29    6   26 1   
    30    8   27 1   
    31   10   28 1   
    32   11   29 1   
    33   12   30 1   
    34   14   31 1   
    35   19   32 1   
    36   21   33 1   
    37   21   34 1   
@<TRIPOS>SUBSTRUCTURE
     1 LIG         1 TEMP              0 ****  ****    0 ROOT
