@<TRIPOS>MOLECULE
48Z
   24    24     1     0     0
SMALL
bcc


@<TRIPOS>ATOM
      1 O           3.2930   -1.9680    1.0150 oh        1 LIG     -0.618800
      2 P          -2.8050    0.0560    0.3530 p5        1 LIG      1.380500
      3 C           2.8980   -1.2560   -0.1590 c3        1 LIG      0.300900
      4 C1          3.5000    0.1620   -0.1390 c3        1 LIG      0.127600
      5 F           4.2580    0.3890   -1.2930 f         1 LIG     -0.214300
      6 C2          2.2660    1.0970   -0.1050 c3        1 LIG      0.072100
      7 O1          2.4800    2.1920    0.7880 oh        1 LIG     -0.598800
      8 C3          1.1590    0.1540    0.4300 c3        1 LIG      0.080100
      9 O2          1.4680   -1.1170   -0.1890 os        1 LIG     -0.434600
     10 C4         -0.2230    0.6430   -0.0070 c3        1 LIG      0.162400
     11 O3         -1.2300   -0.1730    0.5940 os        1 LIG     -0.560200
     12 O4         -3.1590    1.4510    0.6990 o         1 LIG     -0.738300
     13 O5         -3.6430   -0.9560    1.2830 oh        1 LIG     -0.754400
     14 S          -3.2680   -0.3060   -1.6840 sh        1 LIG     -0.462200
     15 H           4.2590   -2.0580    1.0290 ho        1 LIG      0.432000
     16 H1          3.2420   -1.8010   -1.0130 h2        1 LIG      0.097700
     17 H2          4.1570    0.3190    0.6910 h1        1 LIG      0.095700
     18 H3          2.0340    1.5420   -1.0500 h1        1 LIG      0.123700
     19 H4          2.6960    1.8520    1.6710 ho        1 LIG      0.419000
     20 H5          1.1340    0.1040    1.4980 h1        1 LIG      0.076700
     21 H6         -0.3030    0.5810   -1.0720 h1        1 LIG      0.086200
     22 H7         -0.3560    1.6590    0.3020 h1        1 LIG      0.086200
     23 H8         -3.4110   -1.8700    1.0560 ho        1 LIG      0.500000
     24 H9         -2.9430   -1.5880   -2.0020 hs        1 LIG      0.337800
@<TRIPOS>BOND
     1    2   14 1   
     2    2   13 1   
     3    2   11 1   
     4    3    1 1   
     5    4    3 1   
     6    5    4 1   
     7    6    4 1   
     8    6    7 1   
     9    8    6 1   
    10    8    9 1   
    11    9    3 1   
    12   10    8 1   
    13   10   11 1   
    14   12    2 2   
    15    1   15 1   
    16    3   16 1   
    17    4   17 1   
    18    6   18 1   
    19    7   19 1   
    20    8   20 1   
    21   10   21 1   
    22   10   22 1   
    23   13   23 1   
    24   14   24 1   
@<TRIPOS>SUBSTRUCTURE
     1 LIG         1 TEMP              0 ****  ****    0 ROOT
