@<TRIPOS>MOLECULE
MTH
   36    38     1     0     0
SMALL
bcc


@<TRIPOS>ATOM
      1 C           5.6420   -2.1550    0.3390 C.3       1 LIG     -0.057000
      2 S           4.3480   -1.4390   -0.7120 S.3       1 LIG     -0.257200
      3 C1          3.7160   -0.1510    0.3990 C.3       1 LIG     -0.052300
      4 C2          2.5830    0.6080   -0.2940 C.3       1 LIG      0.100100
      5 O           1.4550   -0.2630   -0.4830 O.2       1 LIG     -0.414600
      6 C3          0.6120    1.4930    0.8340 C.3       1 LIG      0.085100
      7 O1         -0.1530    2.6990    0.7600 O.h       1 LIG     -0.563800
      8 C4          2.1170    1.7790    0.5940 C.3       1 LIG      0.077100
      9 O2          2.2890    3.0260   -0.0820 O.h       1 LIG     -0.581800
     10 C5          0.2680    0.5480   -0.3450 C.3       1 LIG      0.205800
     11 N          -0.8920   -0.2870   -0.0210 N.a       1 LIG     -0.178100
     12 C6         -0.8310   -1.5210    0.5720 C.c       1 LIG     -0.124100
     13 C7         -2.0710   -2.0130    0.7280 C.d       1 LIG     -0.143200
     14 C8         -2.9920   -1.0130    0.1930 C.a       1 LIG     -0.378400
     15 C9         -4.3860   -0.9150    0.0580 C.a       1 LIG      0.726200
     16 N1         -5.2130   -1.9350    0.4930 N.h       1 LIG     -0.945500
     17 N2         -4.8910    0.1820   -0.4970 N.b       1 LIG     -0.787000
     18 C10        -4.1040    1.1590   -0.9130 C.a       1 LIG      0.682900
     19 N3         -2.7940    1.1100   -0.8070 N.b       1 LIG     -0.737000
     20 C11        -2.1940    0.0550   -0.2590 C.a       1 LIG      0.492800
     21 H           6.1260   -2.9530   -0.1850 H         1 LIG      0.067033
     22 H1          5.2020   -2.5340    1.2380 H         1 LIG      0.067033
     23 H2          6.3610   -1.4010    0.5840 H         1 LIG      0.067033
     24 H3          4.5050    0.5300    0.6420 H         1 LIG      0.086700
     25 H4          3.3470   -0.6030    1.2960 H         1 LIG      0.086700
     26 H5          2.9460    0.9670   -1.2340 H         1 LIG      0.103700
     27 H6          0.3990    1.0770    1.7970 H         1 LIG      0.099700
     28 H7         -0.0010    3.1260   -0.0980 H         1 LIG      0.414000
     29 H8          2.6750    1.8510    1.5040 H         1 LIG      0.100700
     30 H9          1.7990    3.0100   -0.9190 H         1 LIG      0.411000
     31 H10         0.0130    1.0750   -1.2410 H         1 LIG      0.124700
     32 H11         0.0380   -2.0000    0.8560 H         1 LIG      0.163000
     33 H12        -2.3240   -2.9220    1.1450 H         1 LIG      0.154000
     34 H13        -4.8250   -2.7420    0.9020 H         1 LIG      0.426300
     35 H14        -6.1890   -1.8540    0.3930 H         1 LIG      0.426300
     36 H15        -4.5350    1.9950   -1.3380 H         1 LIG      0.051100
@<TRIPOS>BOND
     1    1    2 1   
     2    2    3 1   
     3    3    4 1   
     4    4    5 1   
     5    4    8 1   
     6    5   10 1   
     7    6    7 1   
     8    6    8 1   
     9    6   10 1   
    10    8    9 1   
    11   10   11 1   
    12   11   12 1   
    13   11   20 1   
    14   12   13 2   
    15   13   14 1   
    16   14   15 ar  
    17   14   20 ar  
    18   15   16 1   
    19   15   17 ar  
    20   17   18 ar  
    21   18   19 ar  
    22   19   20 ar  
    23    1   21 1   
    24    1   22 1   
    25    1   23 1   
    26    3   24 1   
    27    3   25 1   
    28    4   26 1   
    29    6   27 1   
    30    7   28 1   
    31    8   29 1   
    32    9   30 1   
    33   10   31 1   
    34   12   32 1   
    35   13   33 1   
    36   16   34 1   
    37   16   35 1   
    38   18   36 1   
@<TRIPOS>SUBSTRUCTURE
     1 LIG         1 TEMP              0 ****  ****    0 ROOT
