@<TRIPOS>MOLECULE
DBB
   16    15     1     0     0
SMALL
bcc


@<TRIPOS>ATOM
      1 N           0.6340    1.5560    0.3690 N.4       1 LIG     -0.837600
      2 CA          0.3100    0.1250    0.4280 C.3       1 LIG     -0.072500
      3 C          -1.1260   -0.0830    0.0220 C.        1 LIG      0.935600
      4 O          -1.7020    0.7650   -0.6170 O.3       1 LIG     -0.756800
      5 C1          1.2260   -0.6450   -0.5250 C.3       1 LIG     -0.097400
      6 C2          2.6740   -0.5360   -0.0410 C.3       1 LIG     -0.107100
      7 OXT        -1.7660   -1.2100    0.3710 O.3       1 LIG     -0.756800
      8 H1          0.0230    2.0690    1.0040 H         1 LIG      0.442800
      9 H2          0.4980    1.8970   -0.5830 H         1 LIG      0.442800
     10 H3          1.6060    1.6960    0.6440 H         1 LIG      0.442800
     11 HA          0.4530   -0.2320    1.4270 H         1 LIG      0.088700
     12 H           1.1470   -0.2310   -1.5080 H         1 LIG      0.086200
     13 H4          0.9340   -1.6740   -0.5460 H         1 LIG      0.086200
     14 H5          2.9660    0.4930   -0.0190 H         1 LIG      0.034033
     15 H6          3.3140   -1.0750   -0.7080 H         1 LIG      0.034033
     16 H7          2.7530   -0.9500    0.9420 H         1 LIG      0.034033
@<TRIPOS>BOND
     1    1    2 1   
     2    2    3 1   
     3    2    5 1   
     4    3    4 1   
     5    3    7 1   
     6    5    6 1   
     7    1    8 1   
     8    1    9 1   
     9    1   10 1   
    10    2   11 1   
    11    5   12 1   
    12    5   13 1   
    13    6   14 1   
    14    6   15 1   
    15    6   16 1   
@<TRIPOS>SUBSTRUCTURE
     1 LIG         1 TEMP              0 ****  ****    0 ROOT
