@<TRIPOS>MOLECULE
HFA
   21    21     1     0     0
SMALL
bcc


@<TRIPOS>ATOM
      1 O           1.4110    0.7270    1.0200 O.h       1 LIG     -0.643800
      2 C           0.0380    0.4350    1.2880 C.3       1 LIG      0.019100
      3 C1         -0.1240    0.0810    2.7440 C.        1 LIG      0.892600
      4 O1          0.8350    0.0800    3.4770 O.3       1 LIG     -0.833800
      5 C2         -0.4100   -0.7440    0.4240 C.3       1 LIG     -0.058100
      6 C3         -0.2460   -0.3910   -1.0310 C.a       1 LIG     -0.032300
      7 C4          0.9420   -0.6660   -1.6800 C.a       1 LIG     -0.132500
      8 C5         -1.2870    0.2030   -1.7190 C.a       1 LIG     -0.132500
      9 C6          1.0920   -0.3420   -3.0160 C.a       1 LIG     -0.139000
     10 C7         -1.1360    0.5310   -3.0540 C.a       1 LIG     -0.139000
     11 C8          0.0520    0.2570   -3.7020 C.a       1 LIG     -0.160000
     12 O2         -1.3370   -0.2310    3.2270 O.3       1 LIG     -0.833800
     13 H           1.6950    1.4750    1.5680 H         1 LIG      0.424000
     14 H1         -0.5610    1.2920    1.0600 H         1 LIG      0.041700
     15 H2         -1.4380   -0.9630    0.6240 H         1 LIG      0.059700
     16 H3          0.1880   -1.6010    0.6530 H         1 LIG      0.059700
     17 H4          1.7180   -1.1130   -1.1680 H         1 LIG      0.138500
     18 H5         -2.1770    0.4020   -1.2360 H         1 LIG      0.138500
     19 H6          1.9800   -0.5470   -3.5010 H         1 LIG      0.112500
     20 H7         -1.9110    0.9810   -3.5660 H         1 LIG      0.112500
     21 H8          0.1640    0.4990   -4.6990 H         1 LIG      0.109000
@<TRIPOS>BOND
     1    1    2 1   
     2    2    3 1   
     3    2    5 1   
     4    3    4 1   
     5    3   12 1   
     6    5    6 1   
     7    6    7 ar  
     8    6    8 ar  
     9    7    9 ar  
    10    8   10 ar  
    11    9   11 ar  
    12   10   11 ar  
    13    1   13 1   
    14    2   14 1   
    15    5   15 1   
    16    5   16 1   
    17    7   17 1   
    18    8   18 1   
    19    9   19 1   
    20   10   20 1   
    21   11   21 1   
@<TRIPOS>SUBSTRUCTURE
     1 LIG         1 TEMP              0 ****  ****    0 ROOT
