@<TRIPOS>MOLECULE
AZQ
   42    44     1     0     0
SMALL
bcc


@<TRIPOS>ATOM
      1 C          -0.3690    1.6830   -0.5310 c         1 LIG      0.551300
      2 C1         -1.8230    1.2950   -0.6860 c3        1 LIG     -0.227700
      3 C2         -1.8270   -0.2020   -0.4740 c         1 LIG      0.566300
      4 N          -0.5470   -0.5630   -0.2380 n         1 LIG     -0.287300
      5 C3         -0.0210   -1.8190    0.0150 cc        1 LIG      0.734400
      6 N1          1.2540   -2.0030    0.2240 nd        1 LIG     -0.670000
      7 C4          2.1390   -0.9610    0.2040 ca        1 LIG      0.363600
      8 C5          3.4970   -1.1760    0.4310 ca        1 LIG     -0.146300
      9 C6          4.3730   -0.1080    0.4070 ca        1 LIG     -0.135000
     10 C7          3.9120    1.1720    0.1590 ca        1 LIG     -0.059300
     11 C8          2.5650    1.3980   -0.0670 ca        1 LIG     -0.125000
     12 C9          1.6780    0.3380   -0.0460 ca        1 LIG     -0.119600
     13 N2          0.3060    0.5450   -0.2720 n         1 LIG     -0.028500
     14 O           0.0980    2.7990   -0.6260 o         1 LIG     -0.542500
     15 C10        -2.6800    1.9920    0.3730 c3        1 LIG     -0.062400
     16 C11        -4.1570    1.6830    0.1190 c3        1 LIG     -0.087400
     17 C12        -5.0130    2.3790    1.1780 c3        1 LIG     -0.092100
     18 O1         -2.7920   -0.9360   -0.5100 o         1 LIG     -0.574500
     19 N3         -0.8650   -2.9010    0.0470 nh        1 LIG     -0.722300
     20 C13        -1.1330   -3.6570   -1.1790 c3        1 LIG      0.167600
     21 C14        -1.4970   -3.3000    1.3060 c3        1 LIG      0.167600
     22 C15         4.8800    2.3270    0.1370 c3        1 LIG     -0.056800
     23 H          -2.2280    1.5770   -1.6350 hc        1 LIG      0.127700
     24 H1          3.8470   -2.1290    0.6160 ha        1 LIG      0.155000
     25 H2          5.3790   -0.2670    0.5750 ha        1 LIG      0.139000
     26 H3          2.2240    2.3550   -0.2510 ha        1 LIG      0.169000
     27 H4         -2.5230    3.0490    0.3200 hc        1 LIG      0.061700
     28 H5         -2.4040    1.6380    1.3440 hc        1 LIG      0.061700
     29 H6         -4.3140    0.6260    0.1720 hc        1 LIG      0.053700
     30 H7         -4.4340    2.0370   -0.8520 hc        1 LIG      0.053700
     31 H8         -4.7370    2.0250    2.1490 hc        1 LIG      0.036700
     32 H9         -6.0460    2.1630    1.0000 hc        1 LIG      0.036700
     33 H10        -4.8560    3.4360    1.1250 hc        1 LIG      0.036700
     34 H11        -1.8080   -4.4590   -0.9630 h1        1 LIG      0.050867
     35 H12        -0.2160   -4.0560   -1.5600 h1        1 LIG      0.050867
     36 H13        -1.5710   -3.0090   -1.9090 h1        1 LIG      0.050867
     37 H14        -1.1870   -2.6370    2.0870 h1        1 LIG      0.050867
     38 H15        -1.2060   -4.3000    1.5500 h1        1 LIG      0.050867
     39 H16        -2.5610   -3.2540    1.2010 h1        1 LIG      0.050867
     40 H17         5.8690    1.9670    0.3300 hc        1 LIG      0.049033
     41 H18         4.6060    3.0370    0.8890 hc        1 LIG      0.049033
     42 H19         4.8530    2.7970   -0.8240 hc        1 LIG      0.049033
@<TRIPOS>BOND
     1    1   13 1   
     2    1   14 2   
     3    2    1 1   
     4    3    2 1   
     5    3    4 1   
     6    4   13 ar  
     7    5    4 ar  
     8    5    6 ar  
     9    6    7 ar  
    10    7    8 ar  
    11    8    9 ar  
    12    9   10 ar  
    13   10   22 1   
    14   11   10 ar  
    15   12    7 ar  
    16   12   11 ar  
    17   13   12 ar  
    18   15    2 1   
    19   15   16 1   
    20   16   17 1   
    21   18    3 2   
    22   19   21 1   
    23   19    5 1   
    24   20   19 1   
    25    2   23 1   
    26    8   24 1   
    27    9   25 1   
    28   11   26 1   
    29   15   27 1   
    30   15   28 1   
    31   16   29 1   
    32   16   30 1   
    33   17   31 1   
    34   17   32 1   
    35   17   33 1   
    36   20   34 1   
    37   20   35 1   
    38   20   36 1   
    39   21   37 1   
    40   21   38 1   
    41   21   39 1   
    42   22   40 1   
    43   22   41 1   
    44   22   42 1   
@<TRIPOS>SUBSTRUCTURE
     1 LIG         1 TEMP              0 ****  ****    0 ROOT
