@<TRIPOS>MOLECULE
ISE
   22    22     1     0     0
SMALL
bcc


@<TRIPOS>ATOM
      1 C          -1.2290    0.8310    0.4130 c3        1 LIG      0.015100
      2 O          -2.2570    1.6670   -0.1230 oh        1 LIG     -0.557800
      3 C1          0.1240    1.4380    0.1160 c         1 LIG      0.501100
      4 O1          0.2170    2.5500   -0.3450 o         1 LIG     -0.493100
      5 C2          1.3590    0.6160    0.4130 c3        1 LIG      0.015100
      6 O2          2.5120    1.2720   -0.1180 oh        1 LIG     -0.557800
      7 C3          1.1970   -0.7600   -0.2410 c3        1 LIG      0.084100
      8 O3          2.2950   -1.5970    0.1300 oh        1 LIG     -0.556800
      9 C4         -0.1120   -1.3960    0.2290 c3        1 LIG      0.072100
     10 O4         -0.2210   -2.7140   -0.3130 oh        1 LIG     -0.561800
     11 C5         -1.3000   -0.5540   -0.2380 c3        1 LIG      0.084100
     12 O5         -2.5190   -1.2000    0.1350 oh        1 LIG     -0.556800
     13 H          -1.3660    0.7440    1.4710 h1        1 LIG      0.099700
     14 H1         -2.1390    1.7500   -1.0820 ho        1 LIG      0.417000
     15 H2          1.4810    0.5050    1.4700 h1        1 LIG      0.099700
     16 H3          2.4110    1.3770   -1.0770 ho        1 LIG      0.417000
     17 H4          1.1780   -0.6490   -1.3050 h1        1 LIG      0.084700
     18 H5          2.3130   -1.6980    1.0950 ho        1 LIG      0.409000
     19 H6         -0.1150   -1.4440    1.2980 h1        1 LIG      0.078700
     20 H7         -0.2180   -2.6670   -1.2820 ho        1 LIG      0.411000
     21 H8         -1.2680   -0.4480   -1.3020 h1        1 LIG      0.084700
     22 H9         -2.5510   -1.2980    1.0990 ho        1 LIG      0.409000
@<TRIPOS>BOND
     1    1    2 1   
     2    3    1 1   
     3    3    4 2   
     4    5    3 1   
     5    6    5 1   
     6    7    5 1   
     7    8    7 1   
     8    9    7 1   
     9    9   11 1   
    10   10    9 1   
    11   11    1 1   
    12   11   12 1   
    13    1   13 1   
    14    2   14 1   
    15    5   15 1   
    16    6   16 1   
    17    7   17 1   
    18    8   18 1   
    19    9   19 1   
    20   10   20 1   
    21   11   21 1   
    22   12   22 1   
@<TRIPOS>SUBSTRUCTURE
     1 LIG         1 TEMP              0 ****  ****    0 ROOT
