@<TRIPOS>MOLECULE
IHP
   42    42     1     0     0
SMALL
bcc


@<TRIPOS>ATOM
      1 C           1.2830   -0.7750    0.6500 C.3       1 LIG      0.235433
      2 C1          0.0770   -1.6230    0.2410 C.3       1 LIG      0.235433
      3 C2         -1.2120   -0.9030    0.6420 C.3       1 LIG      0.235433
      4 C3         -1.2800    0.4540   -0.0630 C.3       1 LIG      0.235433
      5 C4         -0.0730    1.3010    0.3470 C.3       1 LIG      0.235433
      6 C5          1.2160    0.5810   -0.0540 C.3       1 LIG      0.235433
      7 O           2.4870   -1.4470    0.2750 O.2       1 LIG     -0.641033
      8 P           3.6130   -1.8870    1.3390 P.5       1 LIG      1.430900
      9 O1          2.9970   -2.7230    2.3930 O.3       1 LIG     -1.002833
     10 O2          4.7600   -2.7300    0.5870 O.3       1 LIG     -1.002833
     11 O3          4.2630   -0.5730    2.0060 O.3       1 LIG     -1.002833
     12 O4          0.0920   -1.8200   -1.1750 O.2       1 LIG     -0.641033
     13 P1          0.1690   -3.2760   -1.8560 P.5       1 LIG      1.430900
     14 O5         -0.9340   -4.1200   -1.3440 O.3       1 LIG     -1.002833
     15 O6          0.0340   -3.1290   -3.4540 O.3       1 LIG     -1.002833
     16 O7          1.5800   -3.9630   -1.4980 O.3       1 LIG     -1.002833
     17 O8         -2.3390   -1.6950    0.2590 O.2       1 LIG     -0.641033
     18 P2         -3.4210   -2.2470    1.3150 P.5       1 LIG      1.430900
     19 O9         -2.7290   -3.0160    2.3740 O.3       1 LIG     -1.002833
     20 O10        -4.2060   -1.0080    1.9780 O.3       1 LIG     -1.002833
     21 O11        -4.4710   -3.2030    0.5570 O.3       1 LIG     -1.002833
     22 O12        -2.4840    1.1260    0.3120 O.2       1 LIG     -0.641033
     23 P3         -3.6100    1.5660   -0.7510 P.5       1 LIG      1.430900
     24 O13        -4.0350    0.3850   -1.5350 O.3       1 LIG     -1.002833
     25 O14        -4.8780    2.1750    0.0320 O.3       1 LIG     -1.002833
     26 O15        -3.0050    2.6800   -1.7440 O.3       1 LIG     -1.002833
     27 O16        -0.1360    2.5680   -0.3110 O.2       1 LIG     -0.641033
     28 P4         -0.2110    3.9660    0.4840 P.5       1 LIG      1.430900
     29 O17         0.9260    4.0590    1.4270 O.3       1 LIG     -1.002833
     30 O18        -0.1370    5.1850   -0.5660 O.3       1 LIG     -1.002833
     31 O19        -1.5950    4.0460    1.3020 O.3       1 LIG     -1.002833
     32 O20         2.3420    1.3730    0.3280 O.2       1 LIG     -0.641033
     33 P5          3.4240    1.9260   -0.7280 P.5       1 LIG      1.430900
     34 O21         2.7330    2.6950   -1.7870 O.3       1 LIG     -1.002833
     35 O22         4.4750    2.8820    0.0310 O.3       1 LIG     -1.002833
     36 O23         4.2090    0.6860   -1.3910 O.3       1 LIG     -1.002833
     37 H           1.2720   -0.6270    1.7100 H         1 LIG     -0.016967
     38 H1          0.1240   -2.5710    0.7340 H         1 LIG     -0.016967
     39 H2         -1.2220   -0.7550    1.7020 H         1 LIG     -0.016967
     40 H3         -1.2700    0.3070   -1.1230 H         1 LIG     -0.016967
     41 H4         -0.0840    1.4480    1.4070 H         1 LIG     -0.016967
     42 H5          1.2270    0.4330   -1.1140 H         1 LIG     -0.016967
@<TRIPOS>BOND
     1    1    2 1   
     2    1    6 1   
     3    1    7 1   
     4    2    3 1   
     5    2   12 1   
     6    3    4 1   
     7    3   17 1   
     8    4    5 1   
     9    4   22 1   
    10    5    6 1   
    11    5   27 1   
    12    6   32 1   
    13    7    8 1   
    14    8    9 1   
    15    8   10 1   
    16    8   11 1   
    17   12   13 1   
    18   13   14 1   
    19   13   15 1   
    20   13   16 1   
    21   17   18 1   
    22   18   19 1   
    23   18   20 1   
    24   18   21 1   
    25   22   23 1   
    26   23   24 1   
    27   23   25 1   
    28   23   26 1   
    29   27   28 1   
    30   28   29 1   
    31   28   30 1   
    32   28   31 1   
    33   32   33 1   
    34   33   34 1   
    35   33   35 1   
    36   33   36 1   
    37    1   37 1   
    38    2   38 1   
    39    3   39 1   
    40    4   40 1   
    41    5   41 1   
    42    6   42 1   
@<TRIPOS>SUBSTRUCTURE
     1 LIG         1 TEMP              0 ****  ****    0 ROOT
