@<TRIPOS>MOLECULE
CDI
   26    26     1     0     0
SMALL
bcc


@<TRIPOS>ATOM
      1 C          -0.4740   -0.3730   -3.1490 C.3       1 LIG      0.127400
      2 C1         -0.1760    0.1150   -1.7080 C.3       1 LIG      0.237800
      3 O           1.0600   -0.5110   -1.3160 O.2       1 LIG     -0.636200
      4 P           1.4000   -0.2030    0.2200 P.5       1 LIG      1.621800
      5 O1          2.9170   -0.6970    0.5050 O.3       1 LIG     -0.868000
      6 O2          1.3030    1.2200    0.5550 O.3       1 LIG     -0.868000
      7 P1         -0.4450   -0.0240    2.0110 P.5       1 LIG      1.585800
      8 O3         -0.8910    1.1790    1.0410 O.2       1 LIG     -0.599200
      9 O4         -1.7450   -0.7490    2.6240 O.3       1 LIG     -0.868500
     10 O5          0.3850    0.5090    3.1170 O.3       1 LIG     -0.868500
     11 C2         -1.8550    0.6940    0.1270 C.3       1 LIG      0.170400
     12 C3         -1.3180   -0.3740   -0.8180 C.3       1 LIG      0.090100
     13 O6         -2.3970   -0.8180   -1.6640 O.h       1 LIG     -0.644800
     14 C4         -0.0620    1.6300   -1.7620 C.3       1 LIG     -0.136100
     15 O7          0.5920    0.0190   -4.0150 O.h       1 LIG     -0.649800
     16 O8          0.4150   -1.0850    1.1580 O.2       1 LIG     -0.829800
     17 H          -1.3900    0.0630   -3.4910 H         1 LIG      0.017700
     18 H1         -0.5630   -1.4390   -3.1530 H         1 LIG      0.017700
     19 H2         -2.2090    1.5160   -0.4590 H         1 LIG      0.031700
     20 H3         -2.6330    0.2390    0.7040 H         1 LIG      0.031700
     21 H4         -0.9260   -1.1630   -0.2100 H         1 LIG      0.040700
     22 H5         -2.7190   -0.0730   -2.1950 H         1 LIG      0.421000
     23 H6          0.7530    1.9040   -2.3990 H         1 LIG      0.047367
     24 H7          0.1120    2.0100   -0.7770 H         1 LIG      0.047367
     25 H8         -0.9710    2.0420   -2.1480 H         1 LIG      0.047367
     26 H9          0.6730    0.9860   -4.0110 H         1 LIG      0.434000
@<TRIPOS>BOND
     1    1    2 1   
     2    1   15 1   
     3    2    3 1   
     4    2   12 1   
     5    2   14 1   
     6    3    4 1   
     7    4    5 1   
     8    4    6 1   
     9    4   16 1   
    10    7    8 1   
    11    7    9 1   
    12    7   10 1   
    13    7   16 1   
    14    8   11 1   
    15   11   12 1   
    16   12   13 1   
    17    1   17 1   
    18    1   18 1   
    19   11   19 1   
    20   11   20 1   
    21   12   21 1   
    22   13   22 1   
    23   14   23 1   
    24   14   24 1   
    25   14   25 1   
    26   15   26 1   
@<TRIPOS>SUBSTRUCTURE
     1 LIG         1 TEMP              0 ****  ****    0 ROOT
