@<TRIPOS>MOLECULE
H64
   50    53     1     0     0
SMALL
bcc


@<TRIPOS>ATOM
      1 C          -6.2000    3.3610    0.8940 c3        1 LIG     -0.129600
      2 C1         -6.5550    1.9780    0.3410 c3        1 LIG      0.133500
      3 C2         -7.6360    2.1200   -0.7310 c3        1 LIG     -0.129600
      4 N          -5.3570    1.3650   -0.2490 n4        1 LIG     -0.796000
      5 C3         -4.6320    0.7120    0.8500 c3        1 LIG      0.108800
      6 C4         -3.3670    0.0490    0.3030 c3        1 LIG     -0.126400
      7 C5         -2.6120   -0.6310    1.4470 c3        1 LIG      0.028300
      8 N1         -1.4000   -1.2660    0.9230 na        1 LIG     -0.260000
      9 C6         -1.2930   -2.5550    0.4560 ca        1 LIG      0.466800
     10 N2         -2.1370   -3.5700    0.3110 nb        1 LIG     -0.877000
     11 C7         -1.7280   -4.7180   -0.1880 ca        1 LIG      0.727900
     12 N3         -0.4800   -4.9200   -0.5700 nb        1 LIG     -0.779000
     13 C8          0.4340   -3.9600   -0.4680 ca        1 LIG      0.793200
     14 N4          1.7410   -4.1810   -0.8710 nh        1 LIG     -0.918500
     15 C9          0.0450   -2.7180    0.0590 ca        1 LIG     -0.232200
     16 N5          0.6830   -1.5470    0.3040 nc        1 LIG     -0.474100
     17 C10        -0.1640   -0.6870    0.8130 cd        1 LIG      0.339700
     18 S           0.2270    0.9650    1.2860 ss        1 LIG      0.010900
     19 C11         1.8960    1.0550    0.7290 ca        1 LIG     -0.019100
     20 C12         2.9390    0.9740    1.6430 ca        1 LIG     -0.106000
     21 C13         4.2500    1.0440    1.2050 ca        1 LIG      0.085100
     22 O           5.4340    0.9910    1.8830 os        1 LIG     -0.326900
     23 C14         6.4200    1.5220    0.9780 c3        1 LIG      0.320200
     24 O1          5.8760    1.2390   -0.3250 os        1 LIG     -0.318900
     25 C15         4.5220    1.1970   -0.1530 ca        1 LIG      0.067100
     26 C16         3.4790    1.2770   -1.0620 ca        1 LIG     -0.069000
     27 C17         2.1700    1.2020   -0.6250 ca        1 LIG     -0.030900
     28 Br          0.7500    1.3120   -1.8690 br        1 LIG     -0.041100
     29 H          -7.0720    3.8080    1.3240 hc        1 LIG      0.073533
     30 H1         -5.8360    3.9800    0.1010 hc        1 LIG      0.073533
     31 H2         -5.4440    3.2620    1.6440 hc        1 LIG      0.073533
     32 H3         -6.9190    1.3590    1.1340 hx        1 LIG      0.099700
     33 H4         -7.2720    2.7390   -1.5240 hc        1 LIG      0.073533
     34 H5         -8.5080    2.5670   -0.3010 hc        1 LIG      0.073533
     35 H6         -7.8840    1.1540   -1.1180 hc        1 LIG      0.073533
     36 H7         -4.7720    2.0810   -0.6800 hn        1 LIG      0.472300
     37 H8         -5.6080    0.6930   -0.9740 hn        1 LIG      0.472300
     38 H9         -5.2580   -0.0300    1.2990 hx        1 LIG      0.097700
     39 H10        -4.3630    1.4430    1.5840 hx        1 LIG      0.097700
     40 H11        -2.7410    0.7910   -0.1460 hc        1 LIG      0.092700
     41 H12        -3.6360   -0.6820   -0.4310 hc        1 LIG      0.092700
     42 H13        -3.2380   -1.3730    1.8960 h1        1 LIG      0.088200
     43 H14        -2.3430    0.1000    2.1810 h1        1 LIG      0.088200
     44 H15        -2.4080   -5.4880   -0.2840 h5        1 LIG      0.053100
     45 H16         2.0010   -5.0560   -1.2390 hn        1 LIG      0.467800
     46 H17         2.4090   -3.4630   -0.7890 hn        1 LIG      0.467800
     47 H18         2.7360    0.8620    2.6490 ha        1 LIG      0.166000
     48 H19         7.3630    1.0340    1.1120 h2        1 LIG      0.086200
     49 H20         6.6050    2.5640    1.1320 h2        1 LIG      0.086200
     50 H21         3.6800    1.3930   -2.0670 ha        1 LIG      0.182000
@<TRIPOS>BOND
     1    1    2 1   
     2    2    3 1   
     3    2    4 1   
     4    4    5 1   
     5    5    6 1   
     6    6    7 1   
     7    7    8 1   
     8    8    9 1   
     9    8   17 1   
    10    9   10 ar  
    11    9   15 ar  
    12   10   11 ar  
    13   11   12 ar  
    14   12   13 ar  
    15   13   14 1   
    16   13   15 ar  
    17   15   16 1   
    18   16   17 2   
    19   17   18 1   
    20   18   19 1   
    21   19   20 ar  
    22   19   27 ar  
    23   20   21 ar  
    24   21   22 1   
    25   21   25 ar  
    26   22   23 1   
    27   23   24 1   
    28   24   25 1   
    29   25   26 ar  
    30   26   27 ar  
    31   27   28 1   
    32    1   29 1   
    33    1   30 1   
    34    1   31 1   
    35    2   32 1   
    36    3   33 1   
    37    3   34 1   
    38    3   35 1   
    39    4   36 1   
    40    4   37 1   
    41    5   38 1   
    42    5   39 1   
    43    6   40 1   
    44    6   41 1   
    45    7   42 1   
    46    7   43 1   
    47   11   44 1   
    48   14   45 1   
    49   14   46 1   
    50   20   47 1   
    51   23   48 1   
    52   23   49 1   
    53   26   50 1   
@<TRIPOS>SUBSTRUCTURE
     1 LIG         1 TEMP              0 ****  ****    0 ROOT
