@<TRIPOS>MOLECULE
5N5
   34    36     1     0     0
SMALL
bcc


@<TRIPOS>ATOM
      1 O           0.9140   -2.3370   -0.7260 O.h       1 LIG     -0.583800
      2 C           1.4260   -1.0040   -0.7790 C.3       1 LIG      0.087100
      3 C1          2.9580   -0.9910   -0.5560 C.3       1 LIG      0.133100
      4 O1          3.3790   -2.1920    0.0950 O.h       1 LIG     -0.564800
      5 C2          3.1970    0.2280    0.3550 C.3       1 LIG      0.067100
      6 C3          4.1530    1.2090   -0.3280 C.3       1 LIG      0.079800
      7 N           4.4680    2.3080    0.5940 N.4       1 LIG     -0.831600
      8 O2          1.9220    0.8580    0.5700 O.2       1 LIG     -0.439600
      9 C4          0.9160   -0.1670    0.4220 C.3       1 LIG      0.232800
     10 N1         -0.3870    0.4290    0.1180 N.a       1 LIG     -0.314000
     11 C5         -0.6060    1.6840   -0.3680 C.c       1 LIG      0.355700
     12 N2         -1.8830    1.8850   -0.5200 N.d       1 LIG     -0.500100
     13 C6         -2.5620    0.7750   -0.1430 C.a       1 LIG     -0.259200
     14 C7         -1.6100   -0.1750    0.2650 C.a       1 LIG      0.474800
     15 N3         -2.0250   -1.3650    0.6870 N.b       1 LIG     -0.746000
     16 C8         -3.3080   -1.6540    0.7230 C.a       1 LIG      0.708900
     17 N4         -4.2390   -0.7950    0.3490 N.b       1 LIG     -0.775000
     18 C9         -3.9200    0.4180   -0.0910 C.a       1 LIG      0.774200
     19 N5         -4.9030    1.3090   -0.4860 N.h       1 LIG     -0.935500
     20 H           1.2460   -2.8410   -1.4860 H         1 LIG      0.444000
     21 H1          1.1250   -0.6210   -1.7320 H         1 LIG      0.094700
     22 H2          3.5060   -0.9330   -1.4730 H         1 LIG      0.090700
     23 H3          2.9050   -2.2870    0.9360 H         1 LIG      0.446000
     24 H4          3.6330   -0.0730    1.2840 H         1 LIG      0.110700
     25 H5          3.6900    1.6040   -1.2080 H         1 LIG      0.117200
     26 H6          5.0550    0.7000   -0.5970 H         1 LIG      0.117200
     27 H7          3.6080    2.7940    0.8500 H         1 LIG      0.468133
     28 H8          5.1050    2.9620    0.1390 H         1 LIG      0.468133
     29 H9          4.9090    1.9320    1.4330 H         1 LIG      0.468133
     30 H10         0.7790   -0.7490    1.3090 H         1 LIG      0.158700
     31 H11         0.1320    2.3730   -0.5840 H         1 LIG      0.067800
     32 H12        -3.5980   -2.5870    1.0560 H         1 LIG      0.071100
     33 H13        -4.6540    2.2050   -0.8100 H         1 LIG      0.458300
     34 H14        -5.8510    1.0470   -0.4430 H         1 LIG      0.458300
@<TRIPOS>BOND
     1    2    1 1   
     2    2    3 1   
     3    2    9 1   
     4    3    5 1   
     5    4    3 1   
     6    5    8 1   
     7    5    6 1   
     8    6    7 1   
     9    9    8 1   
    10   10    9 1   
    11   11   10 1   
    12   12   13 1   
    13   12   11 2   
    14   13   14 ar  
    15   14   10 1   
    16   14   15 ar  
    17   16   15 ar  
    18   17   16 ar  
    19   18   13 ar  
    20   18   17 ar  
    21   19   18 1   
    22    1   20 1   
    23    2   21 1   
    24    3   22 1   
    25    4   23 1   
    26    5   24 1   
    27    6   25 1   
    28    6   26 1   
    29    7   27 1   
    30    7   28 1   
    31    7   29 1   
    32    9   30 1   
    33   11   31 1   
    34   16   32 1   
    35   19   33 1   
    36   19   34 1   
@<TRIPOS>SUBSTRUCTURE
     1 LIG         1 TEMP              0 ****  ****    0 ROOT
