@<TRIPOS>MOLECULE
LNL
   49    48     1     0     0
SMALL
bcc


@<TRIPOS>ATOM
      1 O           1.9310    0.6450   -8.6420 o         1 LIG     -0.852800
      2 C           1.3150    0.0050   -7.6360 c         1 LIG      0.907600
      3 O1          1.0680   -1.1730   -7.7310 o         1 LIG     -0.852800
      4 C1          0.9330    0.7570   -6.3870 c3        1 LIG     -0.194400
      5 C2          0.2510   -0.1970   -5.4050 c3        1 LIG     -0.065400
      6 C3         -0.1360    0.5650   -4.1370 c3        1 LIG     -0.078400
      7 C4         -0.8180   -0.3890   -3.1560 c3        1 LIG     -0.078400
      8 C5         -1.2060    0.3730   -1.8880 c3        1 LIG     -0.079400
      9 C6         -1.8880   -0.5810   -0.9060 c3        1 LIG     -0.077400
     10 C7         -2.2760    0.1810    0.3610 c3        1 LIG     -0.053200
     11 C8         -2.9480   -0.7590    1.3280 c2        1 LIG     -0.159200
     12 C9         -2.5100   -0.8550    2.5590 c2        1 LIG     -0.187200
     13 C10        -1.4130    0.0570    3.0420 c3        1 LIG     -0.019000
     14 C11        -1.8550    0.7470    4.3070 c2        1 LIG     -0.163200
     15 C12        -1.0940    0.7100    5.3730 c2        1 LIG     -0.179200
     16 C13         0.2930    0.1270    5.2890 c3        1 LIG     -0.020000
     17 C14         1.2870    1.1190    5.8360 c2        1 LIG     -0.169200
     18 C15         2.1380    0.7500    6.7620 c2        1 LIG     -0.177200
     19 C16         2.2380   -0.6990    7.1590 c3        1 LIG     -0.051200
     20 C17         3.6960   -1.1530    7.0670 c3        1 LIG     -0.090100
     21 H           0.2600    1.5500   -6.6400 hc        1 LIG      0.018700
     22 H1          1.8120    1.1660   -5.9340 hc        1 LIG      0.018700
     23 H2          0.9240   -0.9900   -5.1530 hc        1 LIG      0.044200
     24 H3         -0.6290   -0.6050   -5.8580 hc        1 LIG      0.044200
     25 H4         -0.8090    1.3580   -4.3890 hc        1 LIG      0.025700
     26 H5          0.7430    0.9730   -3.6840 hc        1 LIG      0.025700
     27 H6         -0.1450   -1.1820   -2.9040 hc        1 LIG      0.037200
     28 H7         -1.6970   -0.7970   -3.6090 hc        1 LIG      0.037200
     29 H8         -1.8790    1.1660   -2.1400 hc        1 LIG      0.034200
     30 H9         -0.3270    0.7810   -1.4350 hc        1 LIG      0.034200
     31 H10        -1.2150   -1.3730   -0.6530 hc        1 LIG      0.040200
     32 H11        -2.7670   -0.9900   -1.3590 hc        1 LIG      0.040200
     33 H12        -2.9490    0.9740    0.1080 hc        1 LIG      0.046200
     34 H13        -1.3970    0.5900    0.8140 hc        1 LIG      0.046200
     35 H14        -3.7530   -1.3270    1.0210 ha        1 LIG      0.123000
     36 H15        -2.9170   -1.5560    3.1980 ha        1 LIG      0.117000
     37 H16        -1.2020    0.7890    2.2910 hc        1 LIG      0.056700
     38 H17        -0.5320   -0.5170    3.2380 hc        1 LIG      0.056700
     39 H18        -2.7570    1.2480    4.3330 ha        1 LIG      0.121000
     40 H19        -1.4450    1.0800    6.2700 ha        1 LIG      0.119000
     41 H20         0.5280   -0.0880    4.2680 hc        1 LIG      0.058200
     42 H21         0.3370   -0.7760    5.8620 hc        1 LIG      0.058200
     43 H22         1.2980    2.0880    5.4820 ha        1 LIG      0.119000
     44 H23         2.7400    1.4530    7.2190 ha        1 LIG      0.119000
     45 H24         1.6380   -1.2920    6.5010 hc        1 LIG      0.049200
     46 H25         1.8900   -0.8190    8.1640 hc        1 LIG      0.049200
     47 H26         4.0440   -1.0330    6.0620 hc        1 LIG      0.033367
     48 H27         3.7670   -2.1830    7.3490 hc        1 LIG      0.033367
     49 H28         4.2960   -0.5600    7.7250 hc        1 LIG      0.033367
@<TRIPOS>BOND
     1    1    2 1   
     2    2    3 1   
     3    2    4 1   
     4    4    5 1   
     5    5    6 1   
     6    6    7 1   
     7    7    8 1   
     8    8    9 1   
     9    9   10 1   
    10   10   11 1   
    11   11   12 2   
    12   12   13 1   
    13   13   14 1   
    14   14   15 2   
    15   15   16 1   
    16   16   17 1   
    17   17   18 2   
    18   18   19 1   
    19   19   20 1   
    20    4   21 1   
    21    4   22 1   
    22    5   23 1   
    23    5   24 1   
    24    6   25 1   
    25    6   26 1   
    26    7   27 1   
    27    7   28 1   
    28    8   29 1   
    29    8   30 1   
    30    9   31 1   
    31    9   32 1   
    32   10   33 1   
    33   10   34 1   
    34   11   35 1   
    35   12   36 1   
    36   13   37 1   
    37   13   38 1   
    38   14   39 1   
    39   15   40 1   
    40   16   41 1   
    41   16   42 1   
    42   17   43 1   
    43   18   44 1   
    44   19   45 1   
    45   19   46 1   
    46   20   47 1   
    47   20   48 1   
    48   20   49 1   
@<TRIPOS>SUBSTRUCTURE
     1 LIG         1 TEMP              0 ****  ****    0 ROOT
