@<TRIPOS>MOLECULE
PCI
   13    13     1     0     0
SMALL
bcc


@<TRIPOS>ATOM
      1 O           2.9850    0.0100    0.0000 oh        1 LIG     -0.468100
      2 C           1.6250    0.0060    0.0000 ca        1 LIG      0.162100
      3 C1          0.9310    0.0050    1.2010 ca        1 LIG     -0.037600
      4 Cl          1.7970    0.0090    2.7050 cl        1 LIG     -0.037900
      5 C2         -0.4520    0.0010    1.1990 ca        1 LIG      0.058400
      6 Cl1        -1.3210    0.0000    2.7020 cl        1 LIG     -0.027900
      7 C3         -1.1430   -0.0010    0.0000 ca        1 LIG     -0.010600
      8 Cl2        -2.8790   -0.0060    0.0000 cl        1 LIG     -0.032400
      9 C4         -0.4520    0.0000   -1.1990 ca        1 LIG      0.058400
     10 Cl3        -1.3210   -0.0020   -2.7020 cl        1 LIG     -0.027900
     11 C5          0.9310    0.0090   -1.2010 ca        1 LIG     -0.037600
     12 Cl4         1.7970    0.0120   -2.7050 cl        1 LIG     -0.037900
     13 H           3.4540    0.0080    0.8110 ho        1 LIG      0.440000
@<TRIPOS>BOND
     1    1    2 1   
     2    2    3 ar  
     3    2   11 ar  
     4    3    4 1   
     5    3    5 ar  
     6    5    6 1   
     7    5    7 ar  
     8    7    8 1   
     9    7    9 ar  
    10    9   10 1   
    11    9   11 ar  
    12   11   12 1   
    13    1   13 1   
@<TRIPOS>SUBSTRUCTURE
     1 LIG         1 TEMP              0 ****  ****    0 ROOT
