@<TRIPOS>MOLECULE
6YP
   29    29     1     0     0
SMALL
bcc


@<TRIPOS>ATOM
      1 C          -1.4180    0.0070   -0.6790 ca        1 LIG     -0.009300
      2 C1         -3.7090   -0.0040    0.2690 c3        1 LIG     -0.076400
      3 C2          0.6030   -1.1940   -0.2290 ca        1 LIG     -0.014500
      4 C3         -0.7440   -1.1910   -0.5360 ca        1 LIG     -0.158000
      5 C4          0.6040    1.2000   -0.2080 ca        1 LIG     -0.014500
      6 O           3.2670   -1.2580    0.9330 o         1 LIG     -0.659800
      7 S           2.9960   -0.0030    0.3240 sy        1 LIG      1.528200
      8 O1          3.2670    1.2410    0.9550 o         1 LIG     -0.659800
      9 N           3.8240    0.0100   -1.1100 n3        1 LIG     -1.026700
     10 C5          1.2780    0.0010   -0.0660 ca        1 LIG     -0.392500
     11 C6         -0.7440    1.2030   -0.5150 ca        1 LIG     -0.158000
     12 C7         -2.8860    0.0110   -1.0200 c3        1 LIG     -0.050100
     13 C8         -5.1990   -0.0010   -0.0770 c3        1 LIG     -0.080400
     14 C9         -6.0230   -0.0150    1.2130 c3        1 LIG     -0.093100
     15 H          -3.4760    0.8630    0.8510 hc        1 LIG      0.047700
     16 H1         -3.4750   -0.8840    0.8310 hc        1 LIG      0.047700
     17 H2          1.1050   -2.0890   -0.1210 ha        1 LIG      0.152000
     18 H3         -1.2470   -2.0840   -0.6590 ha        1 LIG      0.141000
     19 H4          1.1070    2.0930   -0.0850 ha        1 LIG      0.152000
     20 H5          4.8270    0.0080   -0.9240 hn        1 LIG      0.446800
     21 H6          3.5780    0.8480   -1.6370 hn        1 LIG      0.446800
     22 H7         -1.2470    2.0980   -0.6220 ha        1 LIG      0.141000
     23 H8         -3.1190   -0.8560   -1.6020 hc        1 LIG      0.054200
     24 H9         -3.1190    0.8910   -1.5820 hc        1 LIG      0.054200
     25 H10        -5.4320   -0.8690   -0.6580 hc        1 LIG      0.039200
     26 H11        -5.4330    0.8790   -0.6400 hc        1 LIG      0.039200
     27 H12        -5.7900   -0.8950    1.7760 hc        1 LIG      0.035367
     28 H13        -7.0650   -0.0130    0.9710 hc        1 LIG      0.035367
     29 H14        -5.7900    0.8530    1.7940 hc        1 LIG      0.035367
@<TRIPOS>BOND
     1    1    4 ar  
     2    1   11 ar  
     3    3   10 ar  
     4    4    3 ar  
     5    5   10 ar  
     6    7    6 2   
     7    8    7 2   
     8    9    7 1   
     9   10    7 1   
    10   11    5 ar  
    11   12    1 1   
    12   12    2 1   
    13   13    2 1   
    14   13   14 1   
    15    2   15 1   
    16    2   16 1   
    17    3   17 1   
    18    4   18 1   
    19    5   19 1   
    20    9   20 1   
    21    9   21 1   
    22   11   22 1   
    23   12   23 1   
    24   12   24 1   
    25   13   25 1   
    26   13   26 1   
    27   14   27 1   
    28   14   28 1   
    29   14   29 1   
@<TRIPOS>SUBSTRUCTURE
     1 LIG         1 TEMP              0 ****  ****    0 ROOT
