@<TRIPOS>MOLECULE
0XL
   22    21     1     0     0
SMALL
bcc


@<TRIPOS>ATOM
      1 C          -0.1780    0.3100   -0.1930 C.3       1 LIG     -0.050800
      2 C1          1.2350    0.0960    0.2860 C.        1 LIG      0.939600
      3 C2         -1.1310    0.2820    1.0040 C.3       1 LIG     -0.081900
      4 N          -0.2750    1.6110   -0.8660 N.4       1 LIG     -0.838600
      5 O           1.4400   -0.4920    1.3210 O.3       1 LIG     -0.757800
      6 C3         -0.5580   -0.8020   -1.1730 C.3       1 LIG     -0.081900
      7 C4         -0.4570   -2.1580   -0.4710 C.3       1 LIG     -0.102100
      8 C5         -2.5660    0.4990    0.5190 C.3       1 LIG     -0.102100
      9 O1          2.2660    0.5580   -0.4390 O.3       1 LIG     -0.757800
     10 H          -0.8650    1.0590    1.6900 H         1 LIG      0.060700
     11 H1         -1.0600   -0.6660    1.4940 H         1 LIG      0.060700
     12 H2          0.3600    1.6290   -1.6640 H         1 LIG      0.442133
     13 H3         -0.0210    2.3520   -0.2120 H         1 LIG      0.442133
     14 H4         -1.2310    1.7560   -1.1900 H         1 LIG      0.442133
     15 H5          0.1090   -0.7830   -2.0100 H         1 LIG      0.060700
     16 H6         -1.5610   -0.6500   -1.5130 H         1 LIG      0.060700
     17 H7          0.5460   -2.3100   -0.1310 H         1 LIG      0.043867
     18 H8         -0.7230   -2.9350   -1.1570 H         1 LIG      0.043867
     19 H9         -1.1240   -2.1770    0.3660 H         1 LIG      0.043867
     20 H10        -2.6370    1.4470    0.0290 H         1 LIG      0.043867
     21 H11        -3.2320    0.4790    1.3560 H         1 LIG      0.043867
     22 H12        -2.8320   -0.2780   -0.1670 H         1 LIG      0.043867
@<TRIPOS>BOND
     1    1    6 1   
     2    1    4 1   
     3    1    2 1   
     4    2    9 1   
     5    3    1 1   
     6    5    2 1   
     7    7    6 1   
     8    8    3 1   
     9    3   10 1   
    10    3   11 1   
    11    4   12 1   
    12    4   13 1   
    13    4   14 1   
    14    6   15 1   
    15    6   16 1   
    16    7   17 1   
    17    7   18 1   
    18    7   19 1   
    19    8   20 1   
    20    8   21 1   
    21    8   22 1   
@<TRIPOS>SUBSTRUCTURE
     1 LIG         1 TEMP              0 ****  ****    0 ROOT
