@<TRIPOS>MOLECULE
TWN
   67    67     1     0     0
SMALL
bcc


@<TRIPOS>ATOM
      1 O          -0.4340    1.3420   -0.4900 O.3       1 LIG     -0.547000
      2 C          -0.5180    0.3030    0.1220 C.        1 LIG      0.631100
      3 O1         -1.7230   -0.1790    0.4630 O.2       1 LIG     -0.441900
      4 C1         -2.9260    0.5470    0.0970 C.3       1 LIG      0.140400
      5 C2         -4.1540   -0.2140    0.6020 C.3       1 LIG     -0.082400
      6 C3         -5.4220    0.5510    0.2170 C.3       1 LIG     -0.060700
      7 C4         -5.4490    1.8950    0.9490 C.3       1 LIG     -0.098100
      8 C5         -6.6520   -0.2690    0.6100 C.3       1 LIG      0.144100
      9 O2         -6.6790   -1.5070   -0.1170 O.2       1 LIG     -0.425600
     10 C6         -8.0290   -1.8490   -0.4510 C.3       1 LIG      0.127400
     11 C7         -8.9400   -0.7160    0.0690 C.3       1 LIG     -0.092700
     12 C8        -10.0480   -0.4020   -0.9390 C.3       1 LIG     -0.085100
     13 C9         -7.9480    0.4740    0.1970 C.3       1 LIG     -0.082700
     14 C10        -7.7690    1.1890   -1.1430 C.3       1 LIG     -0.090100
     15 C11         0.7310   -0.4500    0.5010 C.3       1 LIG     -0.127400
     16 C12         1.9580    0.3100   -0.0040 C.3       1 LIG     -0.079400
     17 C13         3.2260   -0.4550    0.3810 C.3       1 LIG     -0.078400
     18 C14         4.4540    0.3060   -0.1230 C.3       1 LIG     -0.079400
     19 C15         5.7220   -0.4600    0.2620 C.3       1 LIG     -0.079400
     20 C16         6.9500    0.3010   -0.2430 C.3       1 LIG     -0.079400
     21 C17         8.2170   -0.4640    0.1430 C.3       1 LIG     -0.078400
     22 C18         9.4450    0.2960   -0.3620 C.3       1 LIG     -0.079400
     23 C19        10.7130   -0.4690    0.0230 C.3       1 LIG     -0.079400
     24 C20        11.9410    0.2920   -0.4810 C.3       1 LIG     -0.080400
     25 C21        13.2090   -0.4730   -0.0960 C.3       1 LIG     -0.092100
     26 H          -2.9770    0.6400   -0.9680 H         1 LIG      0.049700
     27 H1         -2.9030    1.5210    0.5390 H         1 LIG      0.049700
     28 H2         -4.1030   -0.3070    1.6670 H         1 LIG      0.066200
     29 H3         -4.1770   -1.1880    0.1600 H         1 LIG      0.066200
     30 H4         -5.4290    0.7200   -0.8400 H         1 LIG      0.060700
     31 H5         -5.4420    1.7260    2.0060 H         1 LIG      0.038367
     32 H6         -6.3360    2.4300    0.6800 H         1 LIG      0.038367
     33 H7         -4.5890    2.4690    0.6730 H         1 LIG      0.038367
     34 H8         -6.6000   -0.4260    1.6670 H         1 LIG      0.041700
     35 H9         -8.2970   -2.7750    0.0140 H         1 LIG      0.045700
     36 H10        -8.1370   -1.9620   -1.5100 H         1 LIG      0.045700
     37 H11        -9.4440   -0.9530    0.9820 H         1 LIG      0.053700
     38 H12        -9.6110   -0.1540   -1.8840 H         1 LIG      0.039033
     39 H13       -10.6270    0.4250   -0.5860 H         1 LIG      0.039033
     40 H14       -10.6800   -1.2580   -1.0520 H         1 LIG      0.039033
     41 H15        -8.2580    1.2390    0.8780 H         1 LIG      0.057700
     42 H16        -7.4560    0.4840   -1.8850 H         1 LIG      0.040367
     43 H17        -7.0270    1.9540   -1.0430 H         1 LIG      0.040367
     44 H18        -8.6980    1.6290   -1.4390 H         1 LIG      0.040367
     45 H19         0.7080   -1.4240    0.0590 H         1 LIG      0.077700
     46 H20         0.7820   -0.5420    1.5660 H         1 LIG      0.077700
     47 H21         1.9810    1.2840    0.4380 H         1 LIG      0.057200
     48 H22         1.9070    0.4030   -1.0690 H         1 LIG      0.057200
     49 H23         3.2030   -1.4290   -0.0620 H         1 LIG      0.041200
     50 H24         3.2770   -0.5480    1.4460 H         1 LIG      0.041200
     51 H25         4.4770    1.2800    0.3200 H         1 LIG      0.042700
     52 H26         4.4030    0.4000   -1.1880 H         1 LIG      0.042700
     53 H27         5.6990   -1.4340   -0.1810 H         1 LIG      0.039700
     54 H28         5.7730   -0.5540    1.3270 H         1 LIG      0.039700
     55 H29         6.9730    1.2750    0.1990 H         1 LIG      0.040200
     56 H30         6.8990    0.3940   -1.3080 H         1 LIG      0.040200
     57 H31         8.1940   -1.4380   -0.2990 H         1 LIG      0.039700
     58 H32         8.2680   -0.5560    1.2080 H         1 LIG      0.039700
     59 H33         9.4680    1.2700    0.0800 H         1 LIG      0.039700
     60 H34         9.3940    0.3880   -1.4270 H         1 LIG      0.039700
     61 H35        10.6900   -1.4430   -0.4200 H         1 LIG      0.039700
     62 H36        10.7640   -0.5620    1.0880 H         1 LIG      0.039700
     63 H37        11.9640    1.2660   -0.0380 H         1 LIG      0.038700
     64 H38        11.8900    0.3850   -1.5460 H         1 LIG      0.038700
     65 H39        13.2600   -0.5670    0.9690 H         1 LIG      0.032700
     66 H40        14.0680    0.0590   -0.4490 H         1 LIG      0.032700
     67 H41        13.1860   -1.4470   -0.5390 H         1 LIG      0.032700
@<TRIPOS>BOND
     1    1    2 2   
     2    2    3 1   
     3    2   15 1   
     4    3    4 1   
     5    4    5 1   
     6    5    6 1   
     7    6    7 1   
     8    6    8 1   
     9    8    9 1   
    10    8   13 1   
    11    9   10 1   
    12   10   11 1   
    13   11   12 1   
    14   11   13 1   
    15   13   14 1   
    16   15   16 1   
    17   16   17 1   
    18   17   18 1   
    19   18   19 1   
    20   19   20 1   
    21   20   21 1   
    22   21   22 1   
    23   22   23 1   
    24   23   24 1   
    25   24   25 1   
    26    4   26 1   
    27    4   27 1   
    28    5   28 1   
    29    5   29 1   
    30    6   30 1   
    31    7   31 1   
    32    7   32 1   
    33    7   33 1   
    34    8   34 1   
    35   10   35 1   
    36   10   36 1   
    37   11   37 1   
    38   12   38 1   
    39   12   39 1   
    40   12   40 1   
    41   13   41 1   
    42   14   42 1   
    43   14   43 1   
    44   14   44 1   
    45   15   45 1   
    46   15   46 1   
    47   16   47 1   
    48   16   48 1   
    49   17   49 1   
    50   17   50 1   
    51   18   51 1   
    52   18   52 1   
    53   19   53 1   
    54   19   54 1   
    55   20   55 1   
    56   20   56 1   
    57   21   57 1   
    58   21   58 1   
    59   22   59 1   
    60   22   60 1   
    61   23   61 1   
    62   23   62 1   
    63   24   63 1   
    64   24   64 1   
    65   25   65 1   
    66   25   66 1   
    67   25   67 1   
@<TRIPOS>SUBSTRUCTURE
     1 LIG         1 TEMP              0 ****  ****    0 ROOT
