@<TRIPOS>MOLECULE
CRA
   35    35     1     0     0
SMALL
bcc


@<TRIPOS>ATOM
      1 N          -1.1220    2.6780   -0.3540 n         1 LIG     -0.648000
      2 C           1.3140   -0.1200    0.1620 c3        1 LIG      0.110100
      3 O           2.3260    0.6990    0.7510 oh        1 LIG     -0.571800
      4 C1          0.4350   -1.0520   -1.9730 c3        1 LIG      0.094100
      5 C2         -0.8620   -0.3070   -1.6540 c3        1 LIG      0.107100
      6 C3         -2.0370   -1.0260   -2.3200 c3        1 LIG      0.139400
      7 C4         -0.0490    0.5540    0.3200 c3        1 LIG      0.228200
      8 C5          1.6100   -0.3070   -1.3290 c3        1 LIG      0.062100
      9 O1          2.8080   -1.0680   -1.4920 oh        1 LIG     -0.587800
     10 O2          0.6190   -1.1070   -3.3890 oh        1 LIG     -0.595800
     11 O3         -1.0650   -0.2730   -0.2420 os        1 LIG     -0.460600
     12 N1         -0.3270    0.7660    1.7420 n         1 LIG     -0.498900
     13 O4         -3.2490   -0.3280   -2.0290 oh        1 LIG     -0.595800
     14 C6         -0.3030   -0.2760    2.5960 c         1 LIG      0.743100
     15 O5         -0.1520   -1.4050    2.1730 o         1 LIG     -0.568000
     16 C7         -0.4210   -1.1900    4.8380 c3        1 LIG      0.137700
     17 O6         -0.4470   -0.0660    3.9180 os        1 LIG     -0.444900
     18 C8         -0.0350    1.8820   -0.3910 c         1 LIG      0.630100
     19 O7          0.9540    2.2350   -0.9960 o         1 LIG     -0.600100
     20 H          -1.9250    2.3910    0.1370 hn        1 LIG      0.322500
     21 H1         -1.1130    3.5460   -0.8180 hn        1 LIG      0.322500
     22 H2          1.3030   -1.0720    0.6510 h1        1 LIG      0.126700
     23 H3          2.3390    1.5630    0.3110 ho        1 LIG      0.434000
     24 H4          0.3850   -2.0490   -1.5870 h1        1 LIG      0.059700
     25 H5         -0.7950    0.6940   -2.0250 h1        1 LIG      0.064700
     26 H6         -2.1020   -2.0260   -1.9450 h1        1 LIG      0.070700
     27 H7         -1.8860   -1.0520   -3.3790 h1        1 LIG      0.070700
     28 H8          1.7390    0.6470   -1.7960 h1        1 LIG      0.103700
     29 H9          2.7000   -1.9350   -1.0710 ho        1 LIG      0.417000
     30 H10         0.6650   -0.2060   -3.7440 ho        1 LIG      0.429000
     31 H11        -0.5310    1.6700    2.0740 hn        1 LIG      0.325500
     32 H12        -3.3860   -0.3050   -1.0690 ho        1 LIG      0.406000
     33 H13        -0.5500   -0.8350    5.8390 h1        1 LIG      0.055700
     34 H14         0.5180   -1.6960    4.7570 h1        1 LIG      0.055700
     35 H15        -1.2130   -1.8680    4.5960 h1        1 LIG      0.055700
@<TRIPOS>BOND
     1    1   18 1   
     2    2    3 1   
     3    2    7 1   
     4    2    8 1   
     5    4    5 1   
     6    4    8 1   
     7    4   10 1   
     8    5    6 1   
     9    5   11 1   
    10    6   13 1   
    11    7   11 1   
    12    7   12 1   
    13    7   18 1   
    14    8    9 1   
    15   12   14 1   
    16   14   15 2   
    17   14   17 1   
    18   16   17 1   
    19   18   19 2   
    20    1   20 1   
    21    1   21 1   
    22    2   22 1   
    23    3   23 1   
    24    4   24 1   
    25    5   25 1   
    26    6   26 1   
    27    6   27 1   
    28    8   28 1   
    29    9   29 1   
    30   10   30 1   
    31   12   31 1   
    32   13   32 1   
    33   16   33 1   
    34   16   34 1   
    35   16   35 1   
@<TRIPOS>SUBSTRUCTURE
     1 LIG         1 TEMP              0 ****  ****    0 ROOT
