@<TRIPOS>MOLECULE
52E
   61    63     1     0     0
SMALL
bcc


@<TRIPOS>ATOM
      1 N          -3.0430    0.3830    0.8540 n         1 LIG     -0.528900
      2 C          -5.6230    1.8420   -0.2440 ca        1 LIG     -0.018600
      3 N1          3.6500   -0.4710   -0.4350 n         1 LIG     -0.508400
      4 C1         -6.1700    2.9360   -0.8940 ca        1 LIG      0.130900
      5 C2         -0.3610   -3.2880    0.0110 c3        1 LIG     -0.134400
      6 C3         -1.7460   -3.8380   -0.3340 c3        1 LIG      0.093100
      7 C4         -1.6060   -4.9660   -1.3590 c3        1 LIG      0.095400
      8 O          -2.8850   -5.5570   -1.5940 oh        1 LIG     -0.601800
      9 O1         -2.5500   -2.7930   -0.8830 oh        1 LIG     -0.602800
     10 N2         -1.2510   -1.0970    0.6350 n         1 LIG     -0.438800
     11 N3          5.4050    0.0840    1.0280 nb        1 LIG     -0.696000
     12 C5         -5.9200    4.2140   -0.4250 ca        1 LIG     -0.154000
     13 C6         -5.1250    4.3980    0.6910 ca        1 LIG     -0.106000
     14 C7         -4.5790    3.3050    1.3390 ca        1 LIG     -0.114000
     15 C8         -4.8270    2.0280    0.8720 ca        1 LIG     -0.096300
     16 C9         -4.2310    0.8380    1.5800 c3        1 LIG      0.124300
     17 C10        -2.3410   -0.6750    1.3060 c         1 LIG      0.751100
     18 C11        -0.8290   -0.4050   -0.5860 c3        1 LIG      0.054300
     19 C12        -0.4890   -2.2470    1.1260 c3        1 LIG      0.072700
     20 C13         0.9050   -1.7880    1.5570 c3        1 LIG      0.139400
     21 C14         2.9050   -0.9010    0.6030 c         1 LIG      0.740100
     22 C15         4.9100    0.0830   -0.2070 ca        1 LIG      0.500200
     23 C16         5.6140    0.6150   -1.2670 ca        1 LIG     -0.241300
     24 C17         6.8810    1.1690   -1.0210 ca        1 LIG      0.006000
     25 C18         7.3760    1.1530    0.3100 ca        1 LIG     -0.178300
     26 C19         6.5820    0.5870    1.3200 ca        1 LIG      0.451200
     27 C20         7.6620    1.7300   -2.0420 ca        1 LIG     -0.124000
     28 C21         8.8840    2.2510   -1.7430 ca        1 LIG     -0.107000
     29 C22         9.3710    2.2360   -0.4370 ca        1 LIG     -0.134000
     30 C23         8.6410    1.7000    0.5800 ca        1 LIG     -0.095000
     31 O2         -2.6920   -1.2490    2.3190 o         1 LIG     -0.659100
     32 O3          1.6490   -1.3400    0.3940 os        1 LIG     -0.445900
     33 O4          3.3660   -0.8920    1.7270 o         1 LIG     -0.577000
     34 Cl         -5.9400    0.2370   -0.8260 cl        1 LIG     -0.076400
     35 F          -6.9470    2.7560   -1.9840 f         1 LIG     -0.126900
     36 H          -2.7570    0.8500    0.0360 hn        1 LIG      0.305500
     37 H1          3.3050   -0.5480   -1.3540 hn        1 LIG      0.345500
     38 H2          0.0680   -2.8310   -0.8560 hc        1 LIG      0.065700
     39 H3          0.2690   -4.0880    0.3400 hc        1 LIG      0.065700
     40 H4         -2.2100   -4.2170    0.5520 h1        1 LIG      0.097700
     41 H5         -0.9340   -5.7080   -0.9830 h1        1 LIG      0.053700
     42 H6         -1.2220   -4.5690   -2.2760 h1        1 LIG      0.053700
     43 H7         -3.2330   -5.9170   -0.7630 ho        1 LIG      0.412000
     44 H8         -2.1290   -2.4490   -1.6870 ho        1 LIG      0.409000
     45 H9         -6.3270    5.0300   -0.9080 ha        1 LIG      0.154000
     46 H10        -4.9390    5.3510    1.0400 ha        1 LIG      0.145000
     47 H11        -3.9860    3.4430    2.1720 ha        1 LIG      0.158000
     48 H12        -4.9510    0.0470    1.6170 h1        1 LIG      0.082700
     49 H13        -3.9560    1.1160    2.5760 h1        1 LIG      0.082700
     50 H14         0.0480   -0.8760   -0.9780 h1        1 LIG      0.049033
     51 H15        -0.6130    0.6180   -0.3600 h1        1 LIG      0.049033
     52 H16        -1.6140   -0.4520   -1.3120 h1        1 LIG      0.049033
     53 H17        -0.9970   -2.6800    1.9620 h1        1 LIG      0.104700
     54 H18         1.4220   -2.6030    2.0180 h1        1 LIG      0.083200
     55 H19         0.8150   -0.9820    2.2550 h1        1 LIG      0.083200
     56 H20         5.2180    0.6060   -2.2200 ha        1 LIG      0.179000
     57 H21         6.9240    0.5660    2.2930 h4        1 LIG      0.027100
     58 H22         7.3130    1.7480   -3.0130 ha        1 LIG      0.143000
     59 H23         9.4580    2.6630   -2.4950 ha        1 LIG      0.137000
     60 H24        10.3000    2.6380   -0.2370 ha        1 LIG      0.137000
     61 H25         9.0150    1.6960    1.5420 ha        1 LIG      0.136000
@<TRIPOS>BOND
     1    1   17 1   
     2    2   15 ar  
     3    3   21 1   
     4    4   12 ar  
     5    4    2 ar  
     6    5    6 1   
     7    6    7 1   
     8    7    8 1   
     9    9    6 1   
    10   10   19 1   
    11   11   22 ar  
    12   12   13 ar  
    13   13   14 ar  
    14   15   14 ar  
    15   15   16 1   
    16   16    1 1   
    17   17   10 1   
    18   17   31 2   
    19   18   10 1   
    20   19   20 1   
    21   19    5 1   
    22   21   33 2   
    23   22    3 1   
    24   23   22 ar  
    25   24   23 ar  
    26   25   24 ar  
    27   25   26 ar  
    28   26   11 ar  
    29   27   24 ar  
    30   28   27 ar  
    31   29   28 ar  
    32   29   30 ar  
    33   30   25 ar  
    34   32   21 1   
    35   32   20 1   
    36   34    2 1   
    37   35    4 1   
    38    1   36 1   
    39    3   37 1   
    40    5   38 1   
    41    5   39 1   
    42    6   40 1   
    43    7   41 1   
    44    7   42 1   
    45    8   43 1   
    46    9   44 1   
    47   12   45 1   
    48   13   46 1   
    49   14   47 1   
    50   16   48 1   
    51   16   49 1   
    52   18   50 1   
    53   18   51 1   
    54   18   52 1   
    55   19   53 1   
    56   20   54 1   
    57   20   55 1   
    58   23   56 1   
    59   26   57 1   
    60   27   58 1   
    61   28   59 1   
    62   29   60 1   
    63   30   61 1   
@<TRIPOS>SUBSTRUCTURE
     1 LIG         1 TEMP              0 ****  ****    0 ROOT
