@<TRIPOS>MOLECULE
YPP
   65    67     1     0     0
SMALL
bcc


@<TRIPOS>ATOM
      1 C          -2.2790   -2.6750   -1.1560 C.        1 LIG      0.934600
      2 N          -1.3950   -0.4790   -0.6230 N.        1 LIG     -0.503900
      3 O          -1.8590   -2.5310   -2.2800 O.3       1 LIG     -0.778800
      4 CA         -2.3810   -1.4900   -0.2310 C.3       1 LIG     -0.079300
      5 C1         -3.7860   -0.8920   -0.3210 C.3       1 LIG      0.189600
      6 N1         -3.9520    0.2380    0.6360 N.4       1 LIG     -0.769000
      7 C20        -5.3710    0.5030    0.8930 C.3       1 LIG     -0.042500
      8 C2         -6.2400   -0.7670    0.8220 C.3       1 LIG      0.046100
      9 S          -5.0510   -2.0710    0.3100 S.3       1 LIG     -0.240200
     10 C3         -5.8720    1.4930   -0.1270 C.        1 LIG      0.937600
     11 O1         -5.2550    1.6710   -1.1510 O.3       1 LIG     -0.788800
     12 OXT        -7.0050    2.1770    0.1020 O.3       1 LIG     -0.788800
     13 C4         -6.8360   -1.0890    2.1930 C.3       1 LIG     -0.087600
     14 C5         -7.3450   -0.6060   -0.2240 C.3       1 LIG     -0.087600
     15 C6         -0.1290   -0.5620   -0.1680 C.        1 LIG      0.612100
     16 O2          0.1940   -1.4730    0.5650 O.3       1 LIG     -0.713100
     17 C21         0.8860    0.4770   -0.5700 C.3       1 LIG      0.066000
     18 C7          0.4220    1.8360   -0.1120 C.a       1 LIG     -0.106300
     19 C8         -0.1830    2.6980   -1.0070 C.a       1 LIG     -0.123000
     20 C9         -0.6080    3.9440   -0.5860 C.a       1 LIG     -0.120500
     21 C10        -0.4290    4.3280    0.7300 C.a       1 LIG     -0.123000
     22 C11         0.1750    3.4650    1.6250 C.a       1 LIG     -0.120500
     23 C12         0.5970    2.2170    1.2060 C.a       1 LIG     -0.123000
     24 N2          2.1760    0.1660    0.0510 N.        1 LIG     -0.488900
     25 C13         3.3190    0.6040   -0.5140 C.        1 LIG      0.765100
     26 O3          3.2760    1.3300   -1.4870 O.3       1 LIG     -0.547100
     27 N3          4.5090    0.2360    0.0010 N.        1 LIG     -0.527400
     28 C14         4.5590   -0.5480    1.2350 C.3       1 LIG      0.064000
     29 C15         5.6840   -1.5770    1.1700 C.3       1 LIG      0.079000
     30 N4          6.9440   -0.9370    0.7930 N.        1 LIG     -0.469800
     31 C16         6.9530    0.0610   -0.1140 C.        1 LIG      0.633500
     32 O4          8.0020    0.5220   -0.5110 O.3       1 LIG     -0.591500
     33 C17         5.6490    0.5860   -0.6260 C.        1 LIG      0.649500
     34 O5          5.6200    1.3220   -1.5910 O.3       1 LIG     -0.531500
     35 C18         8.2000   -1.3800    1.4030 C.3       1 LIG      0.090000
     36 C19         8.8110   -2.4990    0.5560 C.3       1 LIG     -0.120100
     37 O6         -2.6610   -3.8910   -0.7330 O.3       1 LIG     -0.778800
     38 H          -1.6570    0.2600   -1.2180 H         1 LIG      0.352500
     39 HA         -2.1910   -1.8040    0.7740 H         1 LIG      0.090700
     40 H3         -3.9040   -0.6230   -1.3500 H         1 LIG      0.130700
     41 H1         -3.5220    1.0750    0.2420 H         1 LIG      0.462300
     42 H2         -3.5030   -0.0130    1.5170 H         1 LIG      0.462300
     43 H25        -5.4500    0.8890    1.8880 H         1 LIG      0.088700
     44 H4         -6.0480   -1.1970    2.9080 H         1 LIG      0.054700
     45 H5         -7.3920   -2.0010    2.1350 H         1 LIG      0.054700
     46 H6         -7.4850   -0.2940    2.4950 H         1 LIG      0.054700
     47 H7         -6.9070   -0.3820   -1.1740 H         1 LIG      0.054700
     48 H8         -7.9970    0.1920    0.0660 H         1 LIG      0.054700
     49 H9         -7.9040   -1.5160   -0.2950 H         1 LIG      0.054700
     50 H26         0.9940    0.4770   -1.6350 H         1 LIG      0.115700
     51 H10        -0.3170    2.4110   -1.9890 H         1 LIG      0.137500
     52 H11        -1.0590    4.5880   -1.2540 H         1 LIG      0.155000
     53 H12        -0.7460    5.2580    1.0440 H         1 LIG      0.133000
     54 H13         0.3110    3.7520    2.6070 H         1 LIG      0.155000
     55 H14         1.0420    1.5700    1.8760 H         1 LIG      0.137500
     56 H15         2.2080   -0.3630    0.8810 H         1 LIG      0.300500
     57 H16         3.6260   -1.0540    1.3680 H         1 LIG      0.079200
     58 H17         4.7410    0.1120    2.0570 H         1 LIG      0.079200
     59 H18         5.4370   -2.3230    0.4440 H         1 LIG      0.059700
     60 H19         5.7990   -2.0250    2.1350 H         1 LIG      0.059700
     61 H20         8.0080   -1.7440    2.3910 H         1 LIG      0.061200
     62 H21         8.8820   -0.5570    1.4530 H         1 LIG      0.061200
     63 H22         8.1290   -3.3220    0.5060 H         1 LIG      0.044033
     64 H23         9.7280   -2.8230    1.0010 H         1 LIG      0.044033
     65 H24         9.0030   -2.1350   -0.4310 H         1 LIG      0.044033
@<TRIPOS>BOND
     1    1    3 1   
     2    1    4 1   
     3    1   37 1   
     4    2    4 1   
     5    2   15 1   
     6    4    5 1   
     7    5    6 1   
     8    5    9 1   
     9    6    7 1   
    10    7    8 1   
    11    7   10 1   
    12    8    9 1   
    13    8   13 1   
    14    8   14 1   
    15   10   11 1   
    16   10   12 1   
    17   15   16 2   
    18   15   17 1   
    19   17   18 1   
    20   17   24 1   
    21   18   19 ar  
    22   18   23 ar  
    23   19   20 ar  
    24   20   21 ar  
    25   21   22 ar  
    26   22   23 ar  
    27   24   25 1   
    28   25   26 2   
    29   25   27 1   
    30   27   28 1   
    31   27   33 1   
    32   28   29 1   
    33   29   30 1   
    34   30   31 1   
    35   30   35 1   
    36   31   32 2   
    37   31   33 1   
    38   33   34 2   
    39   35   36 1   
    40    2   38 1   
    41    4   39 1   
    42    5   40 1   
    43    6   41 1   
    44    6   42 1   
    45    7   43 1   
    46   13   44 1   
    47   13   45 1   
    48   13   46 1   
    49   14   47 1   
    50   14   48 1   
    51   14   49 1   
    52   17   50 1   
    53   19   51 1   
    54   20   52 1   
    55   21   53 1   
    56   22   54 1   
    57   23   55 1   
    58   24   56 1   
    59   28   57 1   
    60   28   58 1   
    61   29   59 1   
    62   29   60 1   
    63   35   61 1   
    64   35   62 1   
    65   36   63 1   
    66   36   64 1   
    67   36   65 1   
@<TRIPOS>SUBSTRUCTURE
     1 LIG         1 TEMP              0 ****  ****    0 ROOT
