@<TRIPOS>MOLECULE
SRL
   75    75     1     0     0
SMALL
bcc


@<TRIPOS>ATOM
      1 C           0.9800    0.4790   -2.7830 ca        1 LIG     -0.117800
      2 C1          0.0320    0.2130   -3.7620 ca        1 LIG      0.170100
      3 C2         -1.3190    0.2150   -3.4430 ca        1 LIG     -0.117800
      4 C3         -1.7240    0.4810   -2.1530 ca        1 LIG     -0.051000
      5 C4         -0.7740    0.7490   -1.1660 ca        1 LIG     -0.181800
      6 C5          0.5820    0.7530   -1.4920 ca        1 LIG     -0.051000
      7 C6         -1.2050    1.0350    0.2170 ce        1 LIG      0.147800
      8 C7         -0.6300    0.4060    1.2330 cf        1 LIG     -0.675200
      9 P          -1.0150    0.8950    2.9370 py        1 LIG      1.590200
     10 P1          0.5410   -0.9420    0.9190 py        1 LIG      1.590200
     11 O           0.4270   -0.0490   -5.0350 oh        1 LIG     -0.502100
     12 C8          2.4450    0.4760   -3.1340 c3        1 LIG      0.000800
     13 C9         -2.3440   -0.0730   -4.5100 c3        1 LIG      0.000800
     14 C10         3.2700    0.7970   -1.8860 c3        1 LIG     -0.094100
     15 C11         2.8390   -0.9040   -3.6640 c3        1 LIG     -0.094100
     16 C12         2.7150    1.5300   -4.2090 c3        1 LIG     -0.094100
     17 C13        -3.7460   -0.0100   -3.9000 c3        1 LIG     -0.094100
     18 C14        -2.2260    0.9650   -5.6260 c3        1 LIG     -0.094100
     19 C15        -2.1010   -1.4700   -5.0850 c3        1 LIG     -0.094100
     20 O1         -1.9900    2.0080    2.9230 o         1 LIG     -0.845300
     21 O2         -1.6460   -0.3590    3.7260 os        1 LIG     -0.596200
     22 C16        -3.0050   -0.4740    3.3000 c3        1 LIG      0.175150
     23 C17        -3.6250   -1.7330    3.9080 c3        1 LIG     -0.106600
     24 O3          0.3320    1.3710    3.6770 os        1 LIG     -0.596200
     25 C18        -0.0550    1.8840    4.9530 c3        1 LIG      0.175150
     26 C19         1.1930    2.2520    5.7560 c3        1 LIG     -0.106600
     27 O4          0.0610   -1.7570   -0.2180 o         1 LIG     -0.845300
     28 O5          1.9860   -0.3260    0.5670 os        1 LIG     -0.596200
     29 C20         2.4400    0.3580    1.7360 c3        1 LIG      0.175150
     30 C21         3.8950    0.7890    1.5420 c3        1 LIG     -0.106600
     31 O6          0.6580   -1.8670    2.2320 os        1 LIG     -0.596200
     32 C22         1.4610   -2.9930    1.8720 c3        1 LIG      0.175150
     33 C23         1.5220   -3.9720    3.0470 c3        1 LIG     -0.106600
     34 H          -2.7290    0.4820   -1.9170 ha        1 LIG      0.151500
     35 H1          1.2870    0.9610   -0.7670 ha        1 LIG      0.151500
     36 H2         -1.9530    1.7240    0.3930 ha        1 LIG      0.171000
     37 H3          1.3390   -0.0510   -5.2520 ho        1 LIG      0.430000
     38 H4          3.0810    0.0600   -1.1340 hc        1 LIG      0.041256
     39 H5          2.9950    1.7630   -1.5160 hc        1 LIG      0.041256
     40 H6          4.3110    0.7930   -2.1360 hc        1 LIG      0.041256
     41 H7          2.6500   -1.6420   -2.9120 hc        1 LIG      0.041256
     42 H8          3.8800   -0.9070   -3.9130 hc        1 LIG      0.041256
     43 H9          2.2630   -1.1290   -4.5370 hc        1 LIG      0.041256
     44 H10         2.4400    2.4950   -3.8390 hc        1 LIG      0.041256
     45 H11         2.1390    1.3050   -5.0820 hc        1 LIG      0.041256
     46 H12         3.7560    1.5270   -4.4580 hc        1 LIG      0.041256
     47 H13        -3.9160    0.9670   -3.4980 hc        1 LIG      0.041256
     48 H14        -3.8280   -0.7370   -3.1190 hc        1 LIG      0.041256
     49 H15        -4.4740   -0.2160   -4.6570 hc        1 LIG      0.041256
     50 H16        -2.3960    1.9420   -5.2240 hc        1 LIG      0.041256
     51 H17        -2.9540    0.7590   -6.3830 hc        1 LIG      0.041256
     52 H18        -1.2460    0.9200   -6.0520 hc        1 LIG      0.041256
     53 H19        -2.1840   -2.1960   -4.3040 hc        1 LIG      0.041256
     54 H20        -1.1210   -1.5150   -5.5110 hc        1 LIG      0.041256
     55 H21        -2.8290   -1.6760   -5.8420 hc        1 LIG      0.041256
     56 H22        -3.0400   -0.5390    2.2320 h1        1 LIG      0.045450
     57 H23        -3.5540    0.3860    3.6230 h1        1 LIG      0.045450
     58 H24        -3.0760   -2.5930    3.5850 hc        1 LIG      0.045783
     59 H25        -4.6430   -1.8190    3.5890 hc        1 LIG      0.045783
     60 H26        -3.5900   -1.6680    4.9760 hc        1 LIG      0.045783
     61 H27        -0.6130    1.1400    5.4820 h1        1 LIG      0.045450
     62 H28        -0.6610    2.7550    4.8170 h1        1 LIG      0.045450
     63 H29         1.7990    1.3810    5.8920 hc        1 LIG      0.045783
     64 H30         0.9020    2.6360    6.7110 hc        1 LIG      0.045783
     65 H31         1.7510    2.9960    5.2270 hc        1 LIG      0.045783
     66 H32         2.3710   -0.2950    2.5810 h1        1 LIG      0.045450
     67 H33         1.8310    1.2220    1.9030 h1        1 LIG      0.045450
     68 H34         4.5040   -0.0750    1.3750 hc        1 LIG      0.045783
     69 H35         4.2350    1.3010    2.4180 hc        1 LIG      0.045783
     70 H36         3.9640    1.4420    0.6970 hc        1 LIG      0.045783
     71 H37         2.4500   -2.6630    1.6310 h1        1 LIG      0.045450
     72 H38         1.0310   -3.4810    1.0230 h1        1 LIG      0.045450
     73 H39         1.9520   -3.4840    3.8960 hc        1 LIG      0.045783
     74 H40         2.1230   -4.8150    2.7780 hc        1 LIG      0.045783
     75 H41         0.5330   -4.3020    3.2880 hc        1 LIG      0.045783
@<TRIPOS>BOND
     1    1    2 ar  
     2    1    6 ar  
     3    1   12 1   
     4    2    3 ar  
     5    2   11 1   
     6    3    4 ar  
     7    3   13 1   
     8    4    5 ar  
     9    5    6 ar  
    10    5    7 1   
    11    7    8 2   
    12    8    9 1   
    13    8   10 1   
    14    9   20 2   
    15    9   21 1   
    16    9   24 1   
    17   10   27 2   
    18   10   28 1   
    19   10   31 1   
    20   12   14 1   
    21   12   15 1   
    22   12   16 1   
    23   13   17 1   
    24   13   18 1   
    25   13   19 1   
    26   21   22 1   
    27   22   23 1   
    28   24   25 1   
    29   25   26 1   
    30   28   29 1   
    31   29   30 1   
    32   31   32 1   
    33   32   33 1   
    34    4   34 1   
    35    6   35 1   
    36    7   36 1   
    37   11   37 1   
    38   14   38 1   
    39   14   39 1   
    40   14   40 1   
    41   15   41 1   
    42   15   42 1   
    43   15   43 1   
    44   16   44 1   
    45   16   45 1   
    46   16   46 1   
    47   17   47 1   
    48   17   48 1   
    49   17   49 1   
    50   18   50 1   
    51   18   51 1   
    52   18   52 1   
    53   19   53 1   
    54   19   54 1   
    55   19   55 1   
    56   22   56 1   
    57   22   57 1   
    58   23   58 1   
    59   23   59 1   
    60   23   60 1   
    61   25   61 1   
    62   25   62 1   
    63   26   63 1   
    64   26   64 1   
    65   26   65 1   
    66   29   66 1   
    67   29   67 1   
    68   30   68 1   
    69   30   69 1   
    70   30   70 1   
    71   32   71 1   
    72   32   72 1   
    73   33   73 1   
    74   33   74 1   
    75   33   75 1   
@<TRIPOS>SUBSTRUCTURE
     1 LIG         1 TEMP              0 ****  ****    0 ROOT
