@<TRIPOS>MOLECULE
AKU
   51    54     1     0     0
SMALL
bcc


@<TRIPOS>ATOM
      1 C          -1.8950    1.0540    0.7150 ca        1 LIG     -0.174000
      2 C1          1.8930   -1.2550    0.5760 c3        1 LIG     -0.007200
      3 C2         -1.8050   -0.2870    0.3660 ca        1 LIG     -0.096300
      4 C3         -2.8050   -0.8740   -0.3780 ca        1 LIG     -0.059300
      5 C4         -1.9940    3.6570    1.4460 c3        1 LIG      0.109700
      6 C5         -0.5850   -1.0490    0.8210 c3        1 LIG      0.161000
      7 C6         -1.3630   -2.8880   -0.7000 c3        1 LIG      0.089000
      8 C7         -2.7810   -2.3260   -0.7770 c3        1 LIG     -0.054100
      9 C8         -6.0690    1.2770   -1.5930 c3        1 LIG      0.109700
     10 C9         -0.4540   -3.3960    1.5280 c         1 LIG      0.663900
     11 C10         0.6360   -0.5730    0.0310 c3        1 LIG     -0.088400
     12 N          -0.7850   -2.4840    0.5920 n         1 LIG     -0.480800
     13 N1          4.7280   -0.6810   -1.7010 na        1 LIG     -0.192400
     14 C11        -2.9860    1.8090    0.3240 ca        1 LIG      0.103100
     15 C12        -3.8960   -0.1140   -0.7830 ca        1 LIG     -0.182000
     16 C13         3.0960   -0.7860   -0.2010 cc        1 LIG     -0.142400
     17 C14         3.6520   -1.4000   -1.2570 cd        1 LIG     -0.099100
     18 C15         4.8980    0.4390   -0.9190 ca        1 LIG     -0.046200
     19 C16         3.8810    0.4240    0.0540 ca        1 LIG     -0.088800
     20 C17         5.8170    1.4840   -0.9270 ca        1 LIG     -0.144000
     21 C18        -3.9960    1.2190   -0.4290 ca        1 LIG      0.111100
     22 C19         5.7210    2.4870    0.0120 ca        1 LIG     -0.113000
     23 C20         4.7160    2.4670    0.9700 ca        1 LIG     -0.157000
     24 C21         3.8020    1.4520    0.9950 ca        1 LIG     -0.086000
     25 O          -5.0720    1.9510   -0.8230 os        1 LIG     -0.302900
     26 O1         -3.0700    3.1210    0.6730 os        1 LIG     -0.302900
     27 O2         -0.6300   -4.5760    1.3130 o         1 LIG     -0.606100
     28 H          -1.1420    1.4900    1.2700 ha        1 LIG      0.141000
     29 H1          2.0150   -1.0040    1.6090 hc        1 LIG      0.046200
     30 H2          1.7950   -2.3160    0.4760 hc        1 LIG      0.046200
     31 H3         -2.1820    4.6900    1.6510 h1        1 LIG      0.044700
     32 H4         -1.0800    3.5630    0.8980 h1        1 LIG      0.044700
     33 H5         -1.9140    3.1190    2.3670 h1        1 LIG      0.044700
     34 H6         -0.4270   -0.8750    1.8650 h1        1 LIG      0.056700
     35 H7         -1.3910   -3.9550   -0.7680 h1        1 LIG      0.062700
     36 H8         -0.7690   -2.5130   -1.5070 h1        1 LIG      0.062700
     37 H9         -3.1410   -2.4200   -1.7800 hc        1 LIG      0.059700
     38 H10        -3.4040   -2.8760   -0.1040 hc        1 LIG      0.059700
     39 H11        -6.8550    1.9610   -1.8360 h1        1 LIG      0.044700
     40 H12        -6.4680    0.4630   -1.0250 h1        1 LIG      0.044700
     41 H13        -5.6310    0.9020   -2.4940 h1        1 LIG      0.044700
     42 H14        -0.0510   -3.0900    2.4270 h5        1 LIG      0.030200
     43 H15         0.7340    0.4880    0.1310 hc        1 LIG      0.057700
     44 H16         0.5130   -0.8240   -1.0020 hc        1 LIG      0.057700
     45 H17         5.2960   -0.9280   -2.4660 hn        1 LIG      0.299700
     46 H18        -4.6380   -0.5490   -1.3530 ha        1 LIG      0.141000
     47 H19         3.3170   -2.2840   -1.6730 h4        1 LIG      0.167000
     48 H20         6.5680    1.5070   -1.6340 ha        1 LIG      0.132000
     49 H21         6.4030    3.2610    0.0040 ha        1 LIG      0.130000
     50 H22         4.6590    3.2250    1.6680 ha        1 LIG      0.129000
     51 H23         3.0550    1.4450    1.7070 ha        1 LIG      0.130000
@<TRIPOS>BOND
     1    1    3 ar  
     2    2   16 1   
     3    3    6 1   
     4    4    3 ar  
     5    4    8 1   
     6    6   12 1   
     7    6   11 1   
     8    7   12 1   
     9    8    7 1   
    10    9   25 1   
    11   10   27 2   
    12   11    2 1   
    13   12   10 1   
    14   14    1 ar  
    15   15    4 ar  
    16   16   17 2   
    17   17   13 1   
    18   18   13 1   
    19   19   16 1   
    20   19   18 ar  
    21   20   18 ar  
    22   21   14 ar  
    23   21   15 ar  
    24   22   20 ar  
    25   23   24 ar  
    26   23   22 ar  
    27   24   19 ar  
    28   25   21 1   
    29   26    5 1   
    30   26   14 1   
    31    1   28 1   
    32    2   29 1   
    33    2   30 1   
    34    5   31 1   
    35    5   32 1   
    36    5   33 1   
    37    6   34 1   
    38    7   35 1   
    39    7   36 1   
    40    8   37 1   
    41    8   38 1   
    42    9   39 1   
    43    9   40 1   
    44    9   41 1   
    45   10   42 1   
    46   11   43 1   
    47   11   44 1   
    48   13   45 1   
    49   15   46 1   
    50   17   47 1   
    51   20   48 1   
    52   22   49 1   
    53   23   50 1   
    54   24   51 1   
@<TRIPOS>SUBSTRUCTURE
     1 LIG         1 TEMP              0 ****  ****    0 ROOT
