@<TRIPOS>MOLECULE
25U
   43    45     1     0     0
SMALL
bcc


@<TRIPOS>ATOM
      1 C           4.8510    2.4690   -1.0410 C.3       1 LIG     -0.088100
      2 C1          4.3470    1.2140   -1.7560 C.3       1 LIG     -0.138700
      3 C2          4.1850    0.0970   -0.7570 C.a       1 LIG      0.540600
      4 N           5.1920   -0.7210   -0.4960 N.b       1 LIG     -0.793000
      5 C3          5.0630   -1.7060    0.3810 C.a       1 LIG      0.918900
      6 N1          6.1440   -2.5360    0.6200 N.h       1 LIG     -0.933500
      7 N2          3.9310   -1.9200    1.0350 N.b       1 LIG     -0.834000
      8 C4          2.8730   -1.1450    0.8330 C.a       1 LIG      0.751200
      9 N3          1.6930   -1.3720    1.5180 N.h       1 LIG     -0.961500
     10 C5          2.9730   -0.0840   -0.0890 C.a       1 LIG     -0.342600
     11 C6          1.8600    0.7830   -0.3370 C.g       1 LIG     -0.074000
     12 C7          0.9480    1.4930   -0.5410 C.1       1 LIG     -0.164100
     13 C8         -0.1960    2.3840   -0.7960 C.3       1 LIG      0.054000
     14 C9         -1.3630    1.9580    0.0560 C.a       1 LIG     -0.077300
     15 C10        -2.2660    1.0320   -0.4250 C.a       1 LIG     -0.112000
     16 C11        -1.5260    2.4930    1.3220 C.a       1 LIG     -0.113000
     17 C12        -2.5950    2.1070    2.1100 C.a       1 LIG     -0.128000
     18 C13        -3.5070    1.1850    1.6360 C.a       1 LIG     -0.117000
     19 C14        -3.3450    0.6390    0.3640 C.p       1 LIG     -0.036000
     20 C15        -4.3190   -0.3570   -0.1480 C.p       1 LIG     -0.263600
     21 C16        -4.1690   -0.9190   -1.4180 C.a       1 LIG      0.432700
     22 N4         -5.0600   -1.8030   -1.8350 N.b       1 LIG     -0.689000
     23 C17        -6.0750   -2.1550   -1.0720 C.a       1 LIG      0.626900
     24 N5         -6.2530   -1.6480    0.1320 N.b       1 LIG     -0.689000
     25 C18        -5.4070   -0.7620    0.6290 C.a       1 LIG      0.432700
     26 H           4.9660    3.2620   -1.7500 H         1 LIG      0.041367
     27 H1          5.7950    2.2630   -0.5810 H         1 LIG      0.041367
     28 H2          4.1450    2.7600   -0.2920 H         1 LIG      0.041367
     29 H3          5.0530    0.9230   -2.5050 H         1 LIG      0.061700
     30 H4          3.4030    1.4210   -2.2160 H         1 LIG      0.061700
     31 H5          6.9920   -2.3900    0.1420 H         1 LIG      0.431800
     32 H6          6.0650   -3.2730    1.2680 H         1 LIG      0.431800
     33 H7          1.6320   -2.1160    2.1600 H         1 LIG      0.441300
     34 H8          0.9140   -0.7900    1.3630 H         1 LIG      0.441300
     35 H9         -0.4690    2.3270   -1.8290 H         1 LIG      0.066200
     36 H10         0.0740    3.3900   -0.5530 H         1 LIG      0.066200
     37 H11        -2.1420    0.6310   -1.3680 H         1 LIG      0.138000
     38 H12        -0.8470    3.1830    1.6790 H         1 LIG      0.141000
     39 H13        -2.7110    2.5090    3.0540 H         1 LIG      0.138000
     40 H14        -4.3070    0.9010    2.2230 H         1 LIG      0.136000
     41 H15        -3.3760   -0.6490   -2.0210 H         1 LIG      0.032100
     42 H16        -6.7510   -2.8490   -1.4280 H         1 LIG      0.057100
     43 H17        -5.5480   -0.3760    1.5760 H         1 LIG      0.032100
@<TRIPOS>BOND
     1    1    2 1   
     2    3    2 1   
     3    3   10 ar  
     4    4    3 ar  
     5    5    4 ar  
     6    5    7 ar  
     7    6    5 1   
     8    7    8 ar  
     9    8   10 ar  
    10    8    9 1   
    11   10   11 1   
    12   11   12 3   
    13   12   13 1   
    14   13   14 1   
    15   14   16 ar  
    16   15   14 ar  
    17   15   19 ar  
    18   16   17 ar  
    19   18   17 ar  
    20   19   18 ar  
    21   20   19 1   
    22   20   25 ar  
    23   21   20 ar  
    24   22   21 ar  
    25   22   23 ar  
    26   23   24 ar  
    27   24   25 ar  
    28    1   26 1   
    29    1   27 1   
    30    1   28 1   
    31    2   29 1   
    32    2   30 1   
    33    6   31 1   
    34    6   32 1   
    35    9   33 1   
    36    9   34 1   
    37   13   35 1   
    38   13   36 1   
    39   15   37 1   
    40   16   38 1   
    41   17   39 1   
    42   18   40 1   
    43   21   41 1   
    44   23   42 1   
    45   25   43 1   
@<TRIPOS>SUBSTRUCTURE
     1 LIG         1 TEMP              0 ****  ****    0 ROOT
