@<TRIPOS>MOLECULE
MHU
   34    34     1     0     0
SMALL
bcc


@<TRIPOS>ATOM
      1 N           2.0760    1.4130    0.1740 n4        1 LIG     -0.755000
      2 CA          2.2800   -0.0410    0.2190 c3        1 LIG     -0.061500
      3 C           3.7400   -0.3490    0.0060 c         1 LIG      0.932600
      4 O           4.4770    0.4960   -0.4440 o         1 LIG     -0.762300
      5 C1          1.4520   -0.7070   -0.8820 c3        1 LIG     -0.045100
      6 C2         -0.0140   -0.5020   -0.6010 ca        1 LIG     -0.146300
      7 C3         -0.6640    0.6100   -1.1050 ca        1 LIG     -0.112500
      8 C4         -2.0080    0.8010   -0.8500 ca        1 LIG     -0.169500
      9 C5         -2.7060   -0.1250   -0.0860 ca        1 LIG      0.143600
     10 C6         -2.0510   -1.2410    0.4190 ca        1 LIG     -0.169500
     11 C7         -0.7080   -1.4290    0.1550 ca        1 LIG     -0.112500
     12 N1         -4.0650    0.0650    0.1750 nh        1 LIG     -0.644000
     13 C8         -4.7250    1.3050   -0.2430 c3        1 LIG      0.173100
     14 C9         -4.8320   -0.9750    0.8650 c3        1 LIG      0.173100
     15 C10         2.2370    2.0090    1.5070 c3        1 LIG      0.094100
     16 OXT         4.2210   -1.5630    0.3170 o         1 LIG     -0.762300
     17 H1          1.1340    1.6070   -0.1670 hn        1 LIG      0.453800
     18 H2          2.7730    1.8200   -0.4500 hn        1 LIG      0.453800
     19 HA          1.9710   -0.4160    1.1730 hx        1 LIG      0.088700
     20 H           1.6670   -1.7550   -0.9060 hc        1 LIG      0.089200
     21 H3          1.6990   -0.2710   -1.8270 hc        1 LIG      0.089200
     22 H4         -0.1440    1.2980   -1.6720 ha        1 LIG      0.135500
     23 H5         -2.4930    1.6310   -1.2270 ha        1 LIG      0.139500
     24 H6         -2.5670   -1.9290    0.9900 ha        1 LIG      0.139500
     25 H7         -0.2220   -2.2620    0.5220 ha        1 LIG      0.135500
     26 H8         -4.0140    1.9420   -0.7270 h1        1 LIG      0.039367
     27 H9         -5.1240    1.8040    0.6160 h1        1 LIG      0.039367
     28 H10        -5.5190    1.0750   -0.9220 h1        1 LIG      0.039367
     29 H11        -4.1900   -1.8010    1.0910 h1        1 LIG      0.039367
     30 H12        -5.6310   -1.3060    0.2350 h1        1 LIG      0.039367
     31 H13        -5.2350   -0.5780    1.7730 h1        1 LIG      0.039367
     32 H14         1.5120    1.5920    2.1740 hx        1 LIG      0.087033
     33 H15         2.0960    3.0680    1.4440 hx        1 LIG      0.087033
     34 H16         3.2200    1.8010    1.8740 hx        1 LIG      0.087033
@<TRIPOS>BOND
     1    1    2 1   
     2    1   15 1   
     3    2    3 1   
     4    2    5 1   
     5    3    4 1   
     6    3   16 1   
     7    5    6 1   
     8    6    7 ar  
     9    6   11 ar  
    10    7    8 ar  
    11    8    9 ar  
    12    9   10 ar  
    13    9   12 1   
    14   10   11 ar  
    15   12   13 1   
    16   12   14 1   
    17    1   17 1   
    18    1   18 1   
    19    2   19 1   
    20    5   20 1   
    21    5   21 1   
    22    7   22 1   
    23    8   23 1   
    24   10   24 1   
    25   11   25 1   
    26   13   26 1   
    27   13   27 1   
    28   13   28 1   
    29   14   29 1   
    30   14   30 1   
    31   14   31 1   
    32   15   32 1   
    33   15   33 1   
    34   15   34 1   
@<TRIPOS>SUBSTRUCTURE
     1 LIG         1 TEMP              0 ****  ****    0 ROOT
