@<TRIPOS>MOLECULE
TMH
   26    27     1     0     0
SMALL
bcc


@<TRIPOS>ATOM
      1 C          -1.4780    0.8750    0.4520 c2        1 LIG     -0.179200
      2 C1         -1.3840   -0.2900   -0.1470 c2        1 LIG     -0.110400
      3 C2         -0.0490   -0.6460   -0.7780 cy        1 LIG     -0.041500
      4 C3          0.5310    0.5440   -1.5640 cy        1 LIG     -0.090400
      5 C4          0.9170    1.1110   -0.1820 cy        1 LIG     -0.075700
      6 C5         -0.2850    1.7980    0.4800 c3        1 LIG     -0.037200
      7 C6          1.0760   -0.3580    0.2470 cy        1 LIG     -0.063000
      8 C7          2.4270   -0.9710   -0.1270 c3        1 LIG     -0.080100
      9 C8          0.6750   -0.6260    1.6990 c3        1 LIG     -0.080100
     10 C9         -2.5540   -1.2380   -0.2040 c3        1 LIG     -0.050900
     11 H          -2.3630    1.1570    0.9010 ha        1 LIG      0.125000
     12 H1         -0.2280   -1.5990   -1.2300 hc        1 LIG      0.070700
     13 H2         -0.1870    1.1220   -2.1070 hc        1 LIG      0.052700
     14 H3          1.2370    0.4250   -2.3590 hc        1 LIG      0.052700
     15 H4          1.6880    1.8360   -0.0280 hc        1 LIG      0.065700
     16 H5         -0.0440    2.0370    1.4950 hc        1 LIG      0.048700
     17 H6         -0.5190    2.6950   -0.0540 hc        1 LIG      0.048700
     18 H7          2.6480   -0.7490   -1.1500 hc        1 LIG      0.036367
     19 H8          2.3870   -2.0320    0.0070 hc        1 LIG      0.036367
     20 H9          3.1910   -0.5610    0.5000 hc        1 LIG      0.036367
     21 H10        -0.2740   -0.1730    1.8960 hc        1 LIG      0.036367
     22 H11         1.4110   -0.2110    2.3550 hc        1 LIG      0.036367
     23 H12         0.6070   -1.6810    1.8610 hc        1 LIG      0.036367
     24 H13        -3.3930   -0.8000    0.2960 hc        1 LIG      0.041367
     25 H14        -2.2920   -2.1570    0.2770 hc        1 LIG      0.041367
     26 H15        -2.8080   -1.4300   -1.2260 hc        1 LIG      0.041367
@<TRIPOS>BOND
     1    1    2 2   
     2    1    6 1   
     3    2    3 1   
     4    2   10 1   
     5    3    4 1   
     6    3    7 1   
     7    4    5 1   
     8    5    6 1   
     9    5    7 1   
    10    7    8 1   
    11    7    9 1   
    12    1   11 1   
    13    3   12 1   
    14    4   13 1   
    15    4   14 1   
    16    5   15 1   
    17    6   16 1   
    18    6   17 1   
    19    8   18 1   
    20    8   19 1   
    21    8   20 1   
    22    9   21 1   
    23    9   22 1   
    24    9   23 1   
    25   10   24 1   
    26   10   25 1   
    27   10   26 1   
@<TRIPOS>SUBSTRUCTURE
     1 LIG         1 TEMP              0 ****  ****    0 ROOT
