@<TRIPOS>MOLECULE
P65
   38    39     1     0     0
SMALL
bcc


@<TRIPOS>ATOM
      1 N           4.6780   -0.3570    2.4140 N.h       1 LIG     -0.933500
      2 C           5.2530   -0.0260    1.1950 C.a       1 LIG      0.702200
      3 N1          6.4030    0.6370    1.1500 N.b       1 LIG     -0.816000
      4 C1          6.9570    0.9500   -0.0130 C.a       1 LIG      0.903900
      5 N2          8.1570    1.6430   -0.0230 N.h       1 LIG     -0.928500
      6 N3          6.3940    0.6190   -1.1640 N.b       1 LIG     -0.781000
      7 C2          4.6320   -0.3910   -0.0060 C.a       1 LIG     -0.272500
      8 C3          5.2460   -0.0430   -1.1970 C.a       1 LIG      0.507600
      9 C4          4.6170   -0.4140   -2.5150 C.3       1 LIG     -0.158400
     10 O           3.4550   -1.0760   -0.0030 O.2       1 LIG     -0.325900
     11 C5          2.2540   -0.3030   -0.0040 C.3       1 LIG      0.120400
     12 C6          1.0440   -1.2390    0.0010 C.3       1 LIG     -0.092400
     13 C7         -0.2420   -0.4110   -0.0000 C.3       1 LIG      0.129400
     14 O1         -1.3720   -1.2860    0.0040 O.2       1 LIG     -0.310900
     15 C8         -2.6020   -0.7060    0.0030 C.a       1 LIG      0.149100
     16 C9         -2.7180    0.6750   -0.0010 C.a       1 LIG     -0.195000
     17 C10        -3.9690    1.2630   -0.0020 C.a       1 LIG      0.053400
     18 Cl         -4.1150    2.9930   -0.0070 C.l       1 LIG     -0.060400
     19 C11        -5.1060    0.4730    0.0010 C.a       1 LIG     -0.011600
     20 Cl1        -6.6760    1.2130   -0.0010 C.l       1 LIG     -0.061400
     21 C12        -4.9920   -0.9060    0.0050 C.a       1 LIG     -0.086000
     22 C13        -3.7430   -1.4970    0.0020 C.a       1 LIG     -0.007600
     23 Cl2        -3.6010   -3.2270    0.0070 C.l       1 LIG     -0.056400
     24 H           3.8250   -0.8490    2.4390 H         1 LIG      0.423300
     25 H1          5.1230   -0.1000    3.2540 H         1 LIG      0.423300
     26 H2          8.5800    1.8820   -0.8790 H         1 LIG      0.428300
     27 H3          8.5860    1.8960    0.8260 H         1 LIG      0.428300
     28 H4          5.2330   -0.0620   -3.3160 H         1 LIG      0.061700
     29 H5          3.6480    0.0350   -2.5870 H         1 LIG      0.061700
     30 H6          4.5230   -1.4780   -2.5780 H         1 LIG      0.061700
     31 H7          2.2260    0.3110   -0.8800 H         1 LIG      0.040200
     32 H8          2.2280    0.3170    0.8680 H         1 LIG      0.040200
     33 H9          1.0720   -1.8530    0.8770 H         1 LIG      0.073200
     34 H10         1.0690   -1.8590   -0.8710 H         1 LIG      0.073200
     35 H11        -0.2700    0.2030   -0.8750 H         1 LIG      0.045700
     36 H12        -0.2680    0.2090    0.8720 H         1 LIG      0.045700
     37 H13        -1.8710    1.2640   -0.0030 H         1 LIG      0.159000
     38 H14        -5.8400   -1.4940    0.0100 H         1 LIG      0.167000
@<TRIPOS>BOND
     1    2    7 ar  
     2    2    1 1   
     3    3    2 ar  
     4    4    6 ar  
     5    4    3 ar  
     6    5    4 1   
     7    6    8 ar  
     8    7   10 1   
     9    8    9 1   
    10    8    7 ar  
    11   10   11 1   
    12   11   12 1   
    13   12   13 1   
    14   14   15 1   
    15   14   13 1   
    16   15   16 ar  
    17   16   17 ar  
    18   17   18 1   
    19   19   20 1   
    20   19   17 ar  
    21   21   19 ar  
    22   22   21 ar  
    23   22   15 ar  
    24   23   22 1   
    25    1   24 1   
    26    1   25 1   
    27    5   26 1   
    28    5   27 1   
    29    9   28 1   
    30    9   29 1   
    31    9   30 1   
    32   11   31 1   
    33   11   32 1   
    34   12   33 1   
    35   12   34 1   
    36   13   35 1   
    37   13   36 1   
    38   16   37 1   
    39   21   38 1   
@<TRIPOS>SUBSTRUCTURE
     1 LIG         1 TEMP              0 ****  ****    0 ROOT
