@<TRIPOS>MOLECULE
2QZ
   23    22     1     0     0
SMALL
bcc


@<TRIPOS>ATOM
      1 N           0.2070    1.3210   -0.3200 n4        1 LIG     -0.636400
      2 C          -0.9670    2.1280   -0.6780 c3        1 LIG      0.077600
      3 C1          0.4960    1.4230    1.1170 c3        1 LIG      0.077600
      4 C2          0.0270   -0.0800   -0.7230 c3        1 LIG     -0.090500
      5 C3         -1.2170   -0.6320   -0.0770 c         1 LIG      0.934600
      6 O          -1.7610   -0.0180    0.8100 o         1 LIG     -0.773800
      7 C4          1.2400   -0.8990   -0.2780 c3        1 LIG      0.149100
      8 O1          1.2850   -0.9450    1.1500 oh        1 LIG     -0.630800
      9 C5          2.5190   -0.2460   -0.8080 c3        1 LIG     -0.115100
     10 O2         -1.7210   -1.8070   -0.4860 o         1 LIG     -0.773800
     11 H           1.0090    1.6920   -0.8290 hn        1 LIG      0.413800
     12 H1         -1.8260    1.7600   -0.1560 hx        1 LIG      0.100700
     13 H2         -1.1360    2.0640   -1.7330 hx        1 LIG      0.100700
     14 H3         -0.7950    3.1480   -0.4060 hx        1 LIG      0.100700
     15 H4         -0.3320    1.0400    1.6750 hx        1 LIG      0.100700
     16 H5          0.6570    2.4490    1.3770 hx        1 LIG      0.100700
     17 H6          1.3740    0.8550    1.3450 hx        1 LIG      0.100700
     18 H7         -0.0690   -0.1360   -1.7870 hx        1 LIG      0.084700
     19 H8          1.1610   -1.8930   -0.6650 h1        1 LIG      0.088700
     20 H9          1.3570   -0.0430    1.5000 ho        1 LIG      0.456000
     21 H10         2.5990    0.7480   -0.4210 hc        1 LIG      0.044367
     22 H11         2.4850   -0.2110   -1.8770 hc        1 LIG      0.044367
     23 H12         3.3670   -0.8190   -0.4960 hc        1 LIG      0.044367
@<TRIPOS>BOND
     1    1    4 1   
     2    2    1 1   
     3    3    1 1   
     4    4    5 1   
     5    4    7 1   
     6    5    6 1   
     7    5   10 1   
     8    7    8 1   
     9    7    9 1   
    10    1   11 1   
    11    2   12 1   
    12    2   13 1   
    13    2   14 1   
    14    3   15 1   
    15    3   16 1   
    16    3   17 1   
    17    4   18 1   
    18    7   19 1   
    19    8   20 1   
    20    9   21 1   
    21    9   22 1   
    22    9   23 1   
@<TRIPOS>SUBSTRUCTURE
     1 LIG         1 TEMP              0 ****  ****    0 ROOT
