@<TRIPOS>MOLECULE
097
   52    51     1     0     0
SMALL
bcc


@<TRIPOS>ATOM
      1 N           1.0480   -0.1450   -0.4540 n         1 LIG     -0.550900
      2 C          -1.9040    1.7690    1.7760 c3        1 LIG     -0.095100
      3 O           3.0520    1.3130   -1.4060 o         1 LIG     -0.623100
      4 C1         -0.0830   -0.4380    0.2180 c         1 LIG      0.674100
      5 O1         -5.8430    0.5070   -0.8000 oh        1 LIG     -0.435100
      6 C2          2.3470   -0.2510    0.2160 c3        1 LIG      0.043700
      7 C3          2.9370   -1.6400   -0.0330 c3        1 LIG     -0.051000
      8 C4          3.2310   -1.8100   -1.5250 c3        1 LIG     -0.095433
      9 C5          4.2350   -1.7930    0.7620 c3        1 LIG     -0.095433
     10 C6          3.2810    0.7980   -0.3320 c         1 LIG      0.637100
     11 C7          5.2210    2.2540   -0.1090 c3        1 LIG      0.076300
     12 N1         -4.5460    0.4570   -0.2340 n         1 LIG     -0.345400
     13 C8         -3.8510   -0.6970   -0.2410 c         1 LIG      0.561100
     14 O2         -4.2930   -1.6670   -0.8190 o         1 LIG     -0.570100
     15 C9         -2.5250   -0.7830    0.4710 c3        1 LIG      0.090100
     16 O3         -2.2410   -2.1470    0.7850 oh        1 LIG     -0.568800
     17 C10        -1.4240   -0.2280   -0.4350 c3        1 LIG     -0.162700
     18 C11        -1.6530    1.2680   -0.6590 c3        1 LIG     -0.075400
     19 C12        -1.0780    2.0540    0.5200 c3        1 LIG     -0.076700
     20 C13        -1.1260    3.5510    0.2070 c3        1 LIG     -0.095100
     21 O4         -0.0200   -0.8720    1.3490 o         1 LIG     -0.602100
     22 C14         1.9370   -2.7070    0.4140 c3        1 LIG     -0.095433
     23 N2          4.3710    1.1630    0.3720 n         1 LIG     -0.566900
     24 H           1.0010    0.1400   -1.3950 hn        1 LIG      0.324500
     25 H1         -1.8710    0.7220    1.9950 hc        1 LIG      0.037367
     26 H2         -2.9180    2.0670    1.6110 hc        1 LIG      0.037367
     27 H3         -1.5010    2.3190    2.6000 hc        1 LIG      0.037367
     28 H4         -6.2000    1.4050   -0.7120 ho        1 LIG      0.437000
     29 H5          2.2200   -0.1010    1.2680 h1        1 LIG      0.095700
     30 H6          3.9310   -1.0630   -1.8380 hc        1 LIG      0.043033
     31 H7          2.3230   -1.7040   -2.0820 hc        1 LIG      0.043033
     32 H8          3.6440   -2.7810   -1.6990 hc        1 LIG      0.043033
     33 H9          4.9350   -1.0460    0.4490 hc        1 LIG      0.043033
     34 H10         4.6480   -2.7640    0.5870 hc        1 LIG      0.043033
     35 H11         4.0300   -1.6750    1.8060 hc        1 LIG      0.043033
     36 H12         6.0320    2.4020    0.5730 h1        1 LIG      0.045367
     37 H13         4.6440    3.1520   -0.1770 h1        1 LIG      0.045367
     38 H14         5.6080    2.0050   -1.0750 h1        1 LIG      0.045367
     39 H15        -4.1520    1.2660    0.1650 hn        1 LIG      0.309500
     40 H16        -2.5670   -0.2110    1.3740 h1        1 LIG      0.122700
     41 H17        -2.2030   -2.6660   -0.0340 ho        1 LIG      0.417000
     42 H18        -1.4460   -0.7370   -1.3760 hc        1 LIG      0.076700
     43 H19        -2.7030    1.4600   -0.7380 hc        1 LIG      0.054200
     44 H20        -1.1660    1.5720   -1.5620 hc        1 LIG      0.054200
     45 H21        -0.0640    1.7560    0.6860 hc        1 LIG      0.071700
     46 H22        -2.1400    3.8480    0.0420 hc        1 LIG      0.037367
     47 H23        -0.5480    3.7510   -0.6710 hc        1 LIG      0.037367
     48 H24        -0.7230    4.1010    1.0320 hc        1 LIG      0.037367
     49 H25         1.0290   -2.6000   -0.1420 hc        1 LIG      0.043033
     50 H26         1.7320   -2.5890    1.4580 hc        1 LIG      0.043033
     51 H27         2.3500   -3.6790    0.2390 hc        1 LIG      0.043033
     52 H28         4.5960    0.6960    1.2090 hn        1 LIG      0.315500
@<TRIPOS>BOND
     1    1    4 1   
     2    1    6 1   
     3    2   19 1   
     4    3   10 2   
     5    4   17 1   
     6    4   21 2   
     7    5   12 1   
     8    6    7 1   
     9    6   10 1   
    10    7    8 1   
    11    7    9 1   
    12    7   22 1   
    13   10   23 1   
    14   11   23 1   
    15   12   13 1   
    16   13   14 2   
    17   13   15 1   
    18   15   16 1   
    19   15   17 1   
    20   17   18 1   
    21   18   19 1   
    22   19   20 1   
    23    1   24 1   
    24    2   25 1   
    25    2   26 1   
    26    2   27 1   
    27    5   28 1   
    28    6   29 1   
    29    8   30 1   
    30    8   31 1   
    31    8   32 1   
    32    9   33 1   
    33    9   34 1   
    34    9   35 1   
    35   11   36 1   
    36   11   37 1   
    37   11   38 1   
    38   12   39 1   
    39   15   40 1   
    40   16   41 1   
    41   17   42 1   
    42   18   43 1   
    43   18   44 1   
    44   19   45 1   
    45   20   46 1   
    46   20   47 1   
    47   20   48 1   
    48   22   49 1   
    49   22   50 1   
    50   22   51 1   
    51   23   52 1   
@<TRIPOS>SUBSTRUCTURE
     1 LIG         1 TEMP              0 ****  ****    0 ROOT
