@<TRIPOS>MOLECULE
YDP
   79    81     1     0     0
SMALL
bcc


@<TRIPOS>ATOM
      1 N           5.5150   -0.1790    2.0990 n         1 LIG     -0.652000
      2 C           3.0560    1.8210    0.1700 ca        1 LIG     -0.118000
      3 C1          3.5980    1.0520    1.2010 ca        1 LIG     -0.060100
      4 C2          5.0210    0.6530    1.1610 c         1 LIG      0.663200
      5 C3         -1.5340    3.6040   -2.6390 c3        1 LIG     -0.077650
      6 C4          1.7270    2.1900    0.2140 ca        1 LIG     -0.019250
      7 C5         -2.2860    0.0510    1.0980 c3        1 LIG      0.226500
      8 C6          0.9330    1.7990    1.2770 ca        1 LIG     -0.396500
      9 C7          1.4630    1.0360    2.3020 ca        1 LIG     -0.019250
     10 C8          2.7900    0.6610    2.2700 ca        1 LIG     -0.118000
     11 S          -0.7630    2.2750    1.3250 sy        1 LIG      1.504200
     12 O          -0.8540    3.5080    0.6240 o         1 LIG     -0.638550
     13 N1         -1.6090    1.1660    0.4320 n3        1 LIG     -0.790500
     14 C9         -1.6800    1.3000   -1.0260 c3        1 LIG      0.245000
     15 C10        -2.9400    2.0380   -1.4010 c2        1 LIG     -0.263200
     16 C11        -2.8720    3.1100   -2.1510 c2        1 LIG     -0.078400
     17 C12        -4.1310    3.8480   -2.5260 c3        1 LIG     -0.077650
     18 C13        -3.4200    0.5750    1.9980 c3        1 LIG      0.075300
     19 N2         -4.6850    0.0190    1.4690 n4        1 LIG     -0.766000
     20 O1         -1.1880    2.1120    2.6710 o         1 LIG     -0.638550
     21 O2          5.7460    1.0760    0.2820 o         1 LIG     -0.617100
     22 N3          4.3870    0.6470   -2.5280 n         1 LIG     -0.652000
     23 C14         2.3610   -2.2630   -1.4310 ca        1 LIG     -0.118000
     24 O3          4.9720   -1.2950   -1.6230 o         1 LIG     -0.617100
     25 C15         1.6560   -0.1730   -2.4110 ca        1 LIG     -0.118000
     26 C16         2.6770   -1.0080   -1.9540 ca        1 LIG     -0.060100
     27 C17         4.0860   -0.5650   -2.0230 c         1 LIG      0.663200
     28 S1         -1.6410   -2.3650   -1.7430 sy        1 LIG      1.504200
     29 C18        -1.8800   -2.4710    3.6590 c3        1 LIG     -0.077650
     30 C19         0.6830   -1.9840    3.5900 c3        1 LIG     -0.077650
     31 O4         -2.3740   -1.5080   -2.6080 o         1 LIG     -0.638550
     32 C20         1.0440   -2.6700   -1.3700 ca        1 LIG     -0.019250
     33 C21         0.3440   -0.5920   -2.3440 ca        1 LIG     -0.019250
     34 C22        -2.9820   -0.8550    0.0570 c3        1 LIG      0.226500
     35 C23        -4.3120   -1.2300    0.7570 c3        1 LIG      0.075300
     36 C24         0.0380   -1.8370   -1.8250 ca        1 LIG     -0.396500
     37 N4         -2.1800   -2.0520   -0.2080 n3        1 LIG     -0.790500
     38 C25        -1.8530   -2.9720    0.8840 c3        1 LIG      0.245000
     39 C26        -0.6010   -2.5020    1.5790 c2        1 LIG     -0.263200
     40 C27        -0.6000   -2.3280    2.8780 c2        1 LIG     -0.078400
     41 O5         -1.6250   -3.7790   -1.8820 o         1 LIG     -0.638550
     42 H           4.9280   -0.5220    2.8110 hn        1 LIG      0.328250
     43 H1          6.4630   -0.4440    2.0720 hn        1 LIG      0.328250
     44 H2          3.6480    2.1130   -0.6230 ha        1 LIG      0.170750
     45 H3         -0.7610    2.9590   -2.2760 hc        1 LIG      0.055783
     46 H4         -1.3680    4.5980   -2.2790 hc        1 LIG      0.055783
     47 H5         -1.5230    3.6060   -3.7090 hc        1 LIG      0.055783
     48 H6          1.3250    2.7590   -0.5470 ha        1 LIG      0.157750
     49 H7         -1.5420   -0.4780    1.6560 h1        1 LIG      0.131700
     50 H8          0.8650    0.7470    3.0920 ha        1 LIG      0.157750
     51 H9          3.1850    0.0920    3.0350 ha        1 LIG      0.170750
     52 H10        -1.6890    0.3280   -1.4740 h1        1 LIG      0.062200
     53 H11        -0.8290    1.8460   -1.3760 h1        1 LIG      0.062200
     54 H12        -3.8560    1.6990   -1.0670 ha        1 LIG      0.140500
     55 H13        -3.8820    4.6910   -3.1370 hc        1 LIG      0.055783
     56 H14        -4.6250    4.1840   -1.6390 hc        1 LIG      0.055783
     57 H15        -4.7800    3.1930   -3.0690 hc        1 LIG      0.055783
     58 H16        -3.4480    1.6440    1.9690 hx        1 LIG      0.115200
     59 H17        -3.2680    0.2780    3.0150 hx        1 LIG      0.115200
     60 H18        -5.1210    0.6790    0.8250 hn        1 LIG      0.458300
     61 H19        -5.3570   -0.1610    2.2150 hn        1 LIG      0.458300
     62 H20         5.3250    0.9420   -2.5740 hn        1 LIG      0.328250
     63 H21         3.6690    1.2380   -2.8510 hn        1 LIG      0.328250
     64 H22         3.1110   -2.8850   -1.0910 ha        1 LIG      0.170750
     65 H23         1.8830    0.7560   -2.7980 ha        1 LIG      0.170750
     66 H24        -1.6860   -2.2950    4.6970 hc        1 LIG      0.055783
     67 H25        -2.2670   -3.4600    3.5310 hc        1 LIG      0.055783
     68 H26        -2.5960   -1.7600    3.3040 hc        1 LIG      0.055783
     69 H27         0.4930   -1.8810    4.6380 hc        1 LIG      0.055783
     70 H28         1.0690   -1.0630    3.2050 hc        1 LIG      0.055783
     71 H29         1.3980   -2.7640    3.4330 hc        1 LIG      0.055783
     72 H30         0.8090   -3.5980   -0.9840 ha        1 LIG      0.157750
     73 H31        -0.4110    0.0250   -2.6820 ha        1 LIG      0.157750
     74 H32        -3.1220   -0.3800   -0.8920 h1        1 LIG      0.131700
     75 H33        -5.0590   -1.5010    0.0410 hx        1 LIG      0.115200
     76 H34        -4.2200   -2.0730    1.4090 hx        1 LIG      0.115200
     77 H35        -1.6940   -3.9530    0.4880 h1        1 LIG      0.062200
     78 H36        -2.6620   -2.9960    1.5840 h1        1 LIG      0.062200
     79 H37         0.2550   -2.3170    1.0320 ha        1 LIG      0.140500
@<TRIPOS>BOND
     1    1    4 1   
     2    2    3 ar  
     3    2    6 ar  
     4    3    4 1   
     5    3   10 ar  
     6    4   21 2   
     7    5   16 1   
     8    6    8 ar  
     9    7   13 1   
    10    7   18 1   
    11    7   34 1   
    12    8    9 ar  
    13    8   11 1   
    14    9   10 ar  
    15   11   12 2   
    16   11   13 1   
    17   11   20 2   
    18   13   14 1   
    19   14   15 1   
    20   15   16 2   
    21   16   17 1   
    22   18   19 1   
    23   19   35 1   
    24   22   27 1   
    25   23   26 ar  
    26   23   32 ar  
    27   24   27 2   
    28   25   26 ar  
    29   25   33 ar  
    30   26   27 1   
    31   28   31 2   
    32   28   36 1   
    33   28   37 1   
    34   28   41 2   
    35   29   40 1   
    36   30   40 1   
    37   32   36 ar  
    38   33   36 ar  
    39   34   35 1   
    40   34   37 1   
    41   37   38 1   
    42   38   39 1   
    43   39   40 2   
    44    1   42 1   
    45    1   43 1   
    46    2   44 1   
    47    5   45 1   
    48    5   46 1   
    49    5   47 1   
    50    6   48 1   
    51    7   49 1   
    52    9   50 1   
    53   10   51 1   
    54   14   52 1   
    55   14   53 1   
    56   15   54 1   
    57   17   55 1   
    58   17   56 1   
    59   17   57 1   
    60   18   58 1   
    61   18   59 1   
    62   19   60 1   
    63   19   61 1   
    64   22   62 1   
    65   22   63 1   
    66   23   64 1   
    67   25   65 1   
    68   29   66 1   
    69   29   67 1   
    70   29   68 1   
    71   30   69 1   
    72   30   70 1   
    73   30   71 1   
    74   32   72 1   
    75   33   73 1   
    76   34   74 1   
    77   35   75 1   
    78   35   76 1   
    79   38   77 1   
    80   38   78 1   
    81   39   79 1   
@<TRIPOS>SUBSTRUCTURE
     1 LIG         1 TEMP              0 ****  ****    0 ROOT
