@<TRIPOS>MOLECULE
AKV
   52    54     1     0     0
SMALL
bcc


@<TRIPOS>ATOM
      1 O          -2.4270    1.8660    1.4420 O.3       1 LIG     -0.608100
      2 C          -2.5130    0.9300    0.6700 C.        1 LIG      0.622300
      3 C1         -1.3050    0.1890    0.2580 C.a       1 LIG     -0.213600
      4 C2         -0.0330    0.7080    0.5080 C.a       1 LIG      0.204100
      5 O1          0.1050    1.9020    1.1360 O.h       1 LIG     -0.520100
      6 C3         -3.8270    0.5230    0.1350 C.a       1 LIG     -0.226600
      7 C4         -4.9380    1.3590    0.2660 C.a       1 LIG      0.202100
      8 O2         -4.8200    2.5570    0.8890 O.h       1 LIG     -0.498100
      9 C5         -6.1680    0.9540   -0.2460 C.a       1 LIG     -0.154000
     10 C6         -6.2930   -0.2640   -0.8810 C.a       1 LIG     -0.077000
     11 C7         -5.1990   -1.1030   -1.0190 C.a       1 LIG     -0.120000
     12 C8         -3.9620   -0.7180   -0.5160 C.a       1 LIG     -0.090600
     13 C9         -2.7840   -1.6010   -0.6580 C.        1 LIG      0.581300
     14 O3         -2.9210   -2.7630   -0.9880 O.3       1 LIG     -0.511100
     15 C10        -1.4360   -1.0520   -0.3950 C.a       1 LIG     -0.092600
     16 C11        -0.2990   -1.7500   -0.7850 C.a       1 LIG     -0.105000
     17 C12         0.9580   -1.2200   -0.5360 C.a       1 LIG     -0.024300
     18 C13         2.1870   -1.9810   -0.9610 C.3       1 LIG     -0.094100
     19 C14         2.6960   -2.8010    0.1970 C.        1 LIG      0.633100
     20 O4          3.7890   -3.5650    0.0490 O.2       1 LIG     -0.431900
     21 C15         4.2800   -4.3540    1.1650 C.3       1 LIG      0.125700
     22 O5          2.1200   -2.7690    1.2590 O.3       1 LIG     -0.529000
     23 C16         1.0930   -0.0080    0.1090 C.a       1 LIG     -0.114300
     24 C17         2.4680    0.5480    0.3770 C.3       1 LIG      0.189400
     25 O6          2.5390    1.0120    1.7260 O.h       1 LIG     -0.588800
     26 C18         2.7430    1.7120   -0.5780 C.3       1 LIG     -0.142400
     27 C19         4.1820    2.1960   -0.3920 C.3       1 LIG      0.134100
     28 O7          5.0870    1.1620   -0.7860 O.h       1 LIG     -0.593800
     29 C20         4.4190    3.4370   -1.2540 C.3       1 LIG     -0.111400
     30 C21         5.8160    3.9940   -0.9750 C.3       1 LIG     -0.093100
     31 H          -0.6540    2.3810    1.4030 H         1 LIG      0.466000
     32 H1         -3.9910    2.8270    1.2320 H         1 LIG      0.461000
     33 H2         -6.9910    1.5690   -0.1500 H         1 LIG      0.161000
     34 H3         -7.2100   -0.5530   -1.2570 H         1 LIG      0.147000
     35 H4         -5.3030   -2.0130   -1.4950 H         1 LIG      0.164000
     36 H5         -0.3900   -2.6620   -1.2600 H         1 LIG      0.170000
     37 H6          2.9450   -1.2910   -1.2700 H         1 LIG      0.093700
     38 H7          1.9410   -2.6290   -1.7760 H         1 LIG      0.093700
     39 H8          5.1530   -4.8950    0.8630 H         1 LIG      0.054033
     40 H9          3.5230   -5.0430    1.4750 H         1 LIG      0.054033
     41 H10         4.5270   -3.7050    1.9790 H         1 LIG      0.054033
     42 H11         3.1990   -0.2190    0.2240 H         1 LIG      0.111700
     43 H12         1.8770    1.7070    1.8640 H         1 LIG      0.412000
     44 H13         2.0670    2.5140   -0.3670 H         1 LIG      0.058200
     45 H14         2.6050    1.3850   -1.5870 H         1 LIG      0.058200
     46 H15         4.3460    2.4410    0.6370 H         1 LIG      0.093700
     47 H16         4.9390    0.9410   -1.7190 H         1 LIG      0.392000
     48 H17         3.6860    4.1800   -1.0190 H         1 LIG      0.043700
     49 H18         4.3410    3.1730   -2.2880 H         1 LIG      0.043700
     50 H19         5.8950    4.2580    0.0590 H         1 LIG      0.039367
     51 H20         5.9810    4.8620   -1.5790 H         1 LIG      0.039367
     52 H21         6.5500    3.2510   -1.2100 H         1 LIG      0.039367
@<TRIPOS>BOND
     1    1    2 2   
     2    2    3 1   
     3    2    6 1   
     4    3    4 ar  
     5    3   15 ar  
     6    4    5 1   
     7    4   23 ar  
     8    6    7 ar  
     9    6   12 ar  
    10    7    8 1   
    11    7    9 ar  
    12    9   10 ar  
    13   10   11 ar  
    14   11   12 ar  
    15   12   13 1   
    16   13   14 2   
    17   13   15 1   
    18   15   16 ar  
    19   16   17 ar  
    20   17   18 1   
    21   17   23 ar  
    22   18   19 1   
    23   19   20 1   
    24   19   22 2   
    25   20   21 1   
    26   23   24 1   
    27   24   25 1   
    28   24   26 1   
    29   26   27 1   
    30   27   28 1   
    31   27   29 1   
    32   29   30 1   
    33    5   31 1   
    34    8   32 1   
    35    9   33 1   
    36   10   34 1   
    37   11   35 1   
    38   16   36 1   
    39   18   37 1   
    40   18   38 1   
    41   21   39 1   
    42   21   40 1   
    43   21   41 1   
    44   24   42 1   
    45   25   43 1   
    46   26   44 1   
    47   26   45 1   
    48   27   46 1   
    49   28   47 1   
    50   29   48 1   
    51   29   49 1   
    52   30   50 1   
    53   30   51 1   
    54   30   52 1   
@<TRIPOS>SUBSTRUCTURE
     1 LIG         1 TEMP              0 ****  ****    0 ROOT
