@<TRIPOS>MOLECULE
EAM
   52    55     1     0     0
SMALL
bcc


@<TRIPOS>ATOM
      1 Cl         -6.3240    0.0970    0.5190 C.l       1 LIG     -0.086400
      2 C          -4.5890    0.0670    0.5620 C.a       1 LIG      0.029400
      3 C1         -3.8670    1.0930   -0.0240 C.a       1 LIG     -0.130000
      4 C2         -2.4880    1.0750    0.0070 C.a       1 LIG     -0.090500
      5 C3         -3.9320   -0.9790    1.1880 C.a       1 LIG     -0.130000
      6 C4         -2.5540   -1.0070    1.2260 C.a       1 LIG     -0.090500
      7 C5         -1.8210    0.0200    0.6320 C.a       1 LIG     -0.145900
      8 C6         -0.3410   -0.0050    0.6680 C.e       1 LIG      0.552500
      9 N           0.1890   -0.6820    1.6270 N.2       1 LIG     -0.591900
     10 C7          0.3430    0.7400   -0.3950 C.a       1 LIG     -0.154900
     11 C8          1.4690    1.5330   -0.1660 C.a       1 LIG     -0.014200
     12 C9          2.0370    2.2510   -1.2140 C.a       1 LIG     -0.107000
     13 C10         1.5170    2.1630   -2.4870 C.a       1 LIG     -0.177000
     14 C11         0.4140    1.3540   -2.7310 C.a       1 LIG      0.129100
     15 O          -0.0900    1.2550   -3.9900 O.2       1 LIG     -0.315900
     16 C12         0.5630    2.0110   -5.0120 C.3       1 LIG      0.109700
     17 C13        -0.1700    0.6490   -1.6980 C.a       1 LIG     -0.111000
     18 N1          2.0800    1.5960    1.0870 N.a       1 LIG     -0.254800
     19 C14         2.2160    0.5690    1.9630 C.c       1 LIG      0.340800
     20 N2          2.8920    1.0120    2.9830 N.d       1 LIG     -0.328000
     21 N3          3.1590    2.2610    2.8150 N.d       1 LIG     -0.346000
     22 C15         2.6740    2.6700    1.6720 C.c       1 LIG      0.379800
     23 C16         2.7560    4.0660    1.1100 C.3       1 LIG     -0.124400
     24 C17         1.6430   -0.8170    1.7700 C.3       1 LIG      0.110200
     25 C18         2.2320   -1.4480    0.5060 C.3       1 LIG     -0.168400
     26 C19         1.7170   -2.8570    0.3610 C.        1 LIG      0.654100
     27 O1          0.9540   -3.3120    1.1880 O.3       1 LIG     -0.610100
     28 N4          2.1040   -3.6120   -0.6860 N.        1 LIG     -0.551900
     29 C20         1.6030   -4.9820   -0.8260 C.3       1 LIG      0.081000
     30 C21         2.1920   -5.6130   -2.0900 C.3       1 LIG     -0.124100
     31 H          -4.3620    1.8730   -0.4850 H         1 LIG      0.152000
     32 H1         -1.9510    1.8400   -0.4310 H         1 LIG      0.148500
     33 H2         -4.4750   -1.7390    1.6270 H         1 LIG      0.152000
     34 H3         -2.0660   -1.7870    1.6930 H         1 LIG      0.148500
     35 H4          2.8550    2.8550   -1.0360 H         1 LIG      0.151000
     36 H5          1.9460    2.6970   -3.2580 H         1 LIG      0.150000
     37 H6          0.0710    1.8450   -5.9480 H         1 LIG      0.050033
     38 H7          1.5850    1.7020   -5.0860 H         1 LIG      0.050033
     39 H8          0.5220    3.0520   -4.7670 H         1 LIG      0.050033
     40 H9         -0.9900    0.0510   -1.8850 H         1 LIG      0.171000
     41 H10         2.2690    4.0960    0.1580 H         1 LIG      0.064700
     42 H11         3.7830    4.3440    0.9940 H         1 LIG      0.064700
     43 H12         2.2750    4.7490    1.7790 H         1 LIG      0.064700
     44 H13         1.8810   -1.4430    2.6050 H         1 LIG      0.108700
     45 H14         3.2990   -1.4640    0.5800 H         1 LIG      0.090700
     46 H15         1.9420   -0.8730   -0.3480 H         1 LIG      0.090700
     47 H16         2.7230   -3.2430   -1.3570 H         1 LIG      0.311500
     48 H17         0.5360   -4.9660   -0.8990 H         1 LIG      0.062700
     49 H18         1.8930   -5.5570    0.0290 H         1 LIG      0.062700
     50 H19         1.9020   -5.0380   -2.9440 H         1 LIG      0.041367
     51 H20         1.8260   -6.6130   -2.1930 H         1 LIG      0.041367
     52 H21         3.2590   -5.6290   -2.0160 H         1 LIG      0.041367
@<TRIPOS>BOND
     1    1    2 1   
     2    2    3 ar  
     3    2    5 ar  
     4    3    4 ar  
     5    4    7 ar  
     6    5    6 ar  
     7    6    7 ar  
     8    7    8 1   
     9    8    9 2   
    10    8   10 1   
    11    9   24 1   
    12   10   11 ar  
    13   10   17 ar  
    14   11   12 ar  
    15   11   18 1   
    16   12   13 ar  
    17   13   14 ar  
    18   14   15 1   
    19   14   17 ar  
    20   15   16 1   
    21   18   19 ar  
    22   18   22 ar  
    23   19   20 ar  
    24   19   24 1   
    25   20   21 ar  
    26   21   22 ar  
    27   22   23 1   
    28   24   25 1   
    29   25   26 1   
    30   26   27 2   
    31   26   28 1   
    32   28   29 1   
    33   29   30 1   
    34    3   31 1   
    35    4   32 1   
    36    5   33 1   
    37    6   34 1   
    38   12   35 1   
    39   13   36 1   
    40   16   37 1   
    41   16   38 1   
    42   16   39 1   
    43   17   40 1   
    44   23   41 1   
    45   23   42 1   
    46   23   43 1   
    47   24   44 1   
    48   25   45 1   
    49   25   46 1   
    50   28   47 1   
    51   29   48 1   
    52   29   49 1   
    53   30   50 1   
    54   30   51 1   
    55   30   52 1   
@<TRIPOS>SUBSTRUCTURE
     1 LIG         1 TEMP              0 ****  ****    0 ROOT
