@<TRIPOS>MOLECULE
66N
   15    14     1     0     0
SMALL
bcc


@<TRIPOS>ATOM
      1 O           1.0200    1.2220   -0.3910 O.3       1 LIG     -0.596100
      2 N          -1.5440    0.9880    0.1190 N.4       1 LIG     -0.837600
      3 C          -0.7030   -0.1820    0.4020 C.3       1 LIG      0.038500
      4 C1         -1.1850   -1.3700   -0.4330 C.3       1 LIG     -0.136100
      5 C2          0.7280    0.1310    0.0520 C.        1 LIG      0.647100
      6 N1          1.6850   -0.8010    0.2300 N.        1 LIG     -0.619000
      7 H          -2.5130    0.7760    0.3560 H         1 LIG      0.472800
      8 H1         -1.4800    1.2210   -0.8720 H         1 LIG      0.472800
      9 H2         -1.2230    1.7800    0.6760 H         1 LIG      0.472800
     10 H3         -0.7700   -0.4260    1.4420 H         1 LIG      0.122700
     11 H4         -1.1180   -1.1260   -1.4730 H         1 LIG      0.089033
     12 H5         -2.2010   -1.5920   -0.1830 H         1 LIG      0.089033
     13 H6         -0.5720   -2.2230   -0.2270 H         1 LIG      0.089033
     14 H7          2.6200   -0.5960    0.0010 H         1 LIG      0.347500
     15 H8          1.4490   -1.6870    0.5890 H         1 LIG      0.347500
@<TRIPOS>BOND
     1    1    5 2   
     2    3    4 1   
     3    3    2 1   
     4    5    3 1   
     5    6    5 1   
     6    2    7 1   
     7    2    8 1   
     8    2    9 1   
     9    3   10 1   
    10    4   11 1   
    11    4   12 1   
    12    4   13 1   
    13    6   14 1   
    14    6   15 1   
@<TRIPOS>SUBSTRUCTURE
     1 LIG         1 TEMP              0 ****  ****    0 ROOT
