@<TRIPOS>MOLECULE
CR9
   51    54     1     0     0
SMALL
bcc


@<TRIPOS>ATOM
      1 C          -5.3450   -0.5240    0.1840 ca        1 LIG     -0.307900
      2 C1         -5.5080    0.6310   -0.5940 ca        1 LIG      0.129900
      3 F          -6.7400    0.9890   -1.0190 f         1 LIG     -0.159900
      4 C2         -4.4160    1.4030   -0.9290 ca        1 LIG     -0.184000
      5 C3         -3.1480    1.0390   -0.4950 ca        1 LIG      0.037000
      6 C4         -2.9730   -0.1190    0.2880 ca        1 LIG     -0.007000
      7 C5         -4.0790   -0.8980    0.6250 ca        1 LIG     -0.111000
      8 C6         -6.5210   -1.3450    0.5380 ce        1 LIG      0.534400
      9 N          -7.5370   -0.8010    1.2080 nh        1 LIG     -0.491600
     10 N1         -6.5650   -2.6310    0.1880 nh        1 LIG     -0.475700
     11 N2         -1.8920    1.5860   -0.6580 na        1 LIG     -0.282600
     12 N3         -1.6470   -0.2250    0.5550 nc        1 LIG     -0.319600
     13 C7         -1.0070    0.7790    0.0060 cc        1 LIG      0.323500
     14 C8          0.4510    1.0020    0.0860 cd        1 LIG     -0.316000
     15 C9          0.9550    2.2930    0.2560 cd        1 LIG     -0.056000
     16 C10         2.3160    2.4980    0.3310 cc        1 LIG     -0.221000
     17 C11         3.1900    1.4290    0.2390 cc        1 LIG     -0.133000
     18 C12         2.7050    0.1420    0.0700 cd        1 LIG     -0.006900
     19 C13         1.3340   -0.0780   -0.0130 c         1 LIG      0.559100
     20 O           0.8550   -1.3390   -0.1790 o         1 LIG     -0.596100
     21 O1          3.5690   -0.9040   -0.0200 os        1 LIG     -0.321900
     22 C14         5.8420   -1.3580   -0.7030 c3        1 LIG     -0.069700
     23 C15         7.2520   -0.7650   -0.7480 c3        1 LIG     -0.075400
     24 C16         7.7190   -0.4520    0.6750 c3        1 LIG     -0.077400
     25 C17         6.7620    0.5550    1.3160 c3        1 LIG     -0.074400
     26 C18         5.3530   -0.0370    1.3610 c3        1 LIG     -0.096400
     27 C19         4.8850   -0.3510   -0.0620 c3        1 LIG      0.145100
     28 C20         5.3750   -1.6710   -2.1250 c3        1 LIG     -0.102100
     29 H          -4.5410    2.2520   -1.5030 ha        1 LIG      0.158000
     30 H1         -3.9600   -1.7480    1.1980 ha        1 LIG      0.149000
     31 H2         -7.5040    0.1480    1.4660 hn        1 LIG      0.314700
     32 H3         -8.3200   -1.3490    1.4450 hn        1 LIG      0.314700
     33 H4         -5.8140   -3.0320   -0.3070 hn        1 LIG      0.314700
     34 H5         -7.3480   -3.1790    0.4240 hn        1 LIG      0.314700
     35 H6         -1.6730    2.4050   -1.1590 hn        1 LIG      0.309700
     36 H7          0.3080    3.0940    0.3260 ha        1 LIG      0.086000
     37 H8          2.6850    3.4540    0.4560 ha        1 LIG      0.116000
     38 H9          4.2080    1.5910    0.2960 ha        1 LIG      0.121000
     39 H10         5.8520   -2.2580   -0.1250 hc        1 LIG      0.061700
     40 H11         7.2420    0.1350   -1.3260 hc        1 LIG      0.036200
     41 H12         7.9210   -1.4690   -1.1960 hc        1 LIG      0.036200
     42 H13         8.7050   -0.0370    0.6440 hc        1 LIG      0.035700
     43 H14         7.7290   -1.3520    1.2530 hc        1 LIG      0.035700
     44 H15         6.7520    1.4550    0.7380 hc        1 LIG      0.035200
     45 H16         7.0890    0.7730    2.3110 hc        1 LIG      0.035200
     46 H17         4.6840    0.6680    1.8090 hc        1 LIG      0.049200
     47 H18         5.3630   -0.9370    1.9400 hc        1 LIG      0.049200
     48 H19         4.8750    0.5490   -0.6410 h1        1 LIG      0.048700
     49 H20         5.3650   -0.7710   -2.7030 hc        1 LIG      0.044033
     50 H21         4.3890   -2.0860   -2.0940 hc        1 LIG      0.044033
     51 H22         6.0440   -2.3750   -2.5730 hc        1 LIG      0.044033
@<TRIPOS>BOND
     1    1    2 ar  
     2    1    7 ar  
     3    1    8 1   
     4    2    3 1   
     5    2    4 ar  
     6    4    5 ar  
     7    5    6 ar  
     8    5   11 2   
     9    6    7 ar  
    10    6   12 2   
    11    8    9 2   
    12    8   10 1   
    13   11   13 1   
    14   12   13 1   
    15   13   14 2   
    16   14   15 ar  
    17   14   19 ar  
    18   15   16 ar  
    19   16   17 ar  
    20   17   18 ar  
    21   18   19 ar  
    22   18   21 1   
    23   19   20 2   
    24   21   27 1   
    25   22   23 1   
    26   22   27 1   
    27   22   28 1   
    28   23   24 1   
    29   24   25 1   
    30   25   26 1   
    31   26   27 1   
    32    4   29 1   
    33    7   30 1   
    34    9   31 1   
    35    9   32 1   
    36   10   33 1   
    37   10   34 1   
    38   11   35 1   
    39   15   36 1   
    40   16   37 1   
    41   17   38 1   
    42   22   39 1   
    43   23   40 1   
    44   23   41 1   
    45   24   42 1   
    46   24   43 1   
    47   25   44 1   
    48   25   45 1   
    49   26   46 1   
    50   26   47 1   
    51   27   48 1   
    52   28   49 1   
    53   28   50 1   
    54   28   51 1   
@<TRIPOS>SUBSTRUCTURE
     1 LIG         1 TEMP              0 ****  ****    0 ROOT
