@<TRIPOS>MOLECULE
GRE
   16    16     1     0     0
SMALL
bcc


@<TRIPOS>ATOM
      1 C           3.9610   -2.2750    2.7560 C.        1 LIG      0.926200
      2 O           4.9760   -1.6980    3.1520 O.3       1 LIG     -0.838300
      3 O1          3.7350   -3.5950    2.9880 O.3       1 LIG     -0.838300
      4 C1          2.8780   -1.6520    2.0020 C.a       1 LIG     -0.302600
      5 C2          2.9210   -1.6310    0.6080 C.a       1 LIG      0.216100
      6 C3          1.8850   -1.0360   -0.1120 C.a       1 LIG     -0.255000
      7 C4          0.8070   -0.4630    0.5610 C.a       1 LIG     -0.077000
      8 C5          0.7640   -0.4840    1.9550 C.a       1 LIG     -0.255000
      9 C6          1.8000   -1.0790    2.6760 C.a       1 LIG      0.216100
     10 O2          3.9650   -2.1850   -0.0700 O.h       1 LIG     -0.553100
     11 O3          1.7370   -1.0880    4.0370 O.h       1 LIG     -0.553100
     12 H           1.9170   -1.0200   -1.1430 H         1 LIG      0.124000
     13 H1          0.0410   -0.0230    0.0280 H         1 LIG      0.103000
     14 H2         -0.0340   -0.0590    2.4530 H         1 LIG      0.124000
     15 H3          4.6680   -2.5880    0.4000 H         1 LIG      0.481000
     16 H4          2.4250   -1.4840    4.5350 H         1 LIG      0.481000
@<TRIPOS>BOND
     1    1    2 1   
     2    1    3 1   
     3    1    4 1   
     4    4    5 ar  
     5    4    9 ar  
     6    5    6 ar  
     7    5   10 1   
     8    6    7 ar  
     9    7    8 ar  
    10    8    9 ar  
    11    9   11 1   
    12    6   12 1   
    13    7   13 1   
    14    8   14 1   
    15   10   15 1   
    16   11   16 1   
@<TRIPOS>SUBSTRUCTURE
     1 LIG         1 TEMP              0 ****  ****    0 ROOT
