@<TRIPOS>MOLECULE
K5A
   67    71     1     0     0
SMALL
bcc


@<TRIPOS>ATOM
      1 C           4.1550   -1.5700   -2.6940 C.3       1 LIG     -0.059800
      2 C1          3.6970   -2.2000   -1.4030 C.a       1 LIG     -0.060300
      3 C2          2.8020   -3.2460   -1.4280 C.a       1 LIG     -0.105500
      4 C3          2.3790   -3.8290   -0.2300 C.a       1 LIG     -0.009000
      5 C4          1.4490   -4.9180   -0.2510 C.g       1 LIG      0.219800
      6 C5          2.8660   -3.3480    0.9880 C.a       1 LIG     -0.105500
      7 C6          3.7610   -2.3010    1.0030 C.a       1 LIG     -0.060300
      8 C7          4.2880   -1.7800    2.3160 C.3       1 LIG     -0.059800
      9 C8          4.1830   -1.7270   -0.1900 C.a       1 LIG      0.104100
     10 C9          4.5800    0.5630   -0.1020 C.a       1 LIG      0.738600
     11 C10         2.7860    2.0080    0.0050 C.a       1 LIG      0.865900
     12 C11         0.5230    1.0190    0.0150 C.3       1 LIG      0.214500
     13 C12         0.3410    0.4760    1.4350 C.3       1 LIG     -0.132400
     14 C13        -0.6350   -0.7030    1.4040 C.3       1 LIG      0.115800
     15 C14        -2.9290   -1.3270    0.9450 C.3       1 LIG      0.164100
     16 C15        -4.2880   -0.7670    0.6130 C.a       1 LIG     -0.125300
     17 C16        -5.0860   -0.2490    1.6160 C.a       1 LIG     -0.135000
     18 C17        -6.3330    0.2650    1.3120 C.a       1 LIG     -0.014000
     19 C18        -6.7820    0.2610    0.0050 C.a       1 LIG     -0.310500
     20 C19        -5.9840   -0.2560   -0.9990 C.a       1 LIG     -0.014000
     21 C20        -4.7350   -0.7660   -0.6950 C.a       1 LIG     -0.135000
     22 C21        -1.7830    0.2250   -0.5180 C.3       1 LIG      0.115800
     23 C22        -0.8410    1.4310   -0.5440 C.3       1 LIG     -0.132400
     24 C23         4.9100    2.9500   -0.0090 C.a       1 LIG      0.489100
     25 C24         5.8980    3.9470    0.0070 C.c       1 LIG     -0.254800
     26 C25         7.1490    3.5180   -0.0470 C.d       1 LIG     -0.147400
     27 C26         5.4490    1.6630   -0.0790 C.a       1 LIG     -0.393700
     28 N           0.7110   -5.7820   -0.2670 N.1       1 LIG     -0.343800
     29 N1          3.2720    0.7740   -0.0620 N.b       1 LIG     -0.813000
     30 N2          1.4110    2.1840    0.0460 N.h       1 LIG     -0.816900
     31 N3         -1.9250   -0.2570    0.8620 N.4       1 LIG     -0.690400
     32 N4         -8.1710    2.5250   -0.7160 N.3       1 LIG     -1.031700
     33 N5          3.5620    3.0700    0.0340 N.b       1 LIG     -0.711000
     34 O           5.0700   -0.6990   -0.1700 O.2       1 LIG     -0.357400
     35 O1         -8.7720    0.3010   -1.6000 O.3       1 LIG     -0.635800
     36 O2         -9.1370    0.8450    0.8120 O.3       1 LIG     -0.635800
     37 S          -8.3710    0.9150   -0.3830 S.y       1 LIG      1.518200
     38 S1          7.2030    1.7650   -0.1230 S.3       1 LIG      0.188500
     39 H           4.8440   -0.7790   -2.4800 H         1 LIG      0.058033
     40 H1          3.3100   -1.1750   -3.2180 H         1 LIG      0.058033
     41 H2          4.6370   -2.3090   -3.3000 H         1 LIG      0.058033
     42 H3          2.4440   -3.5990   -2.3290 H         1 LIG      0.153500
     43 H4          2.5560   -3.7760    1.8740 H         1 LIG      0.153500
     44 H5          3.8560   -2.3380    3.1200 H         1 LIG      0.058033
     45 H6          4.0290   -0.7470    2.4200 H         1 LIG      0.058033
     46 H7          5.3530   -1.8850    2.3400 H         1 LIG      0.058033
     47 H8          0.9540    0.2620   -0.6070 H         1 LIG      0.099700
     48 H9          1.2860    0.1480    1.8160 H         1 LIG      0.091450
     49 H10        -0.0480    1.2470    2.0670 H         1 LIG      0.091450
     50 H11        -0.7750   -1.0760    2.3970 H         1 LIG      0.103950
     51 H12        -0.2370   -1.4790    0.7840 H         1 LIG      0.103950
     52 H13        -2.6830   -2.1020    0.2490 H         1 LIG      0.109200
     53 H14        -2.9410   -1.7290    1.9370 H         1 LIG      0.109200
     54 H15        -4.7510   -0.2460    2.5920 H         1 LIG      0.143000
     55 H16        -6.9280    0.6520    2.0610 H         1 LIG      0.176000
     56 H17        -6.3200   -0.2610   -1.9750 H         1 LIG      0.176000
     57 H18        -4.1360   -1.1460   -1.4450 H         1 LIG      0.143000
     58 H19        -1.3800   -0.5560   -1.1290 H         1 LIG      0.103950
     59 H20        -2.7420    0.5140   -0.8950 H         1 LIG      0.103950
     60 H21        -0.7260    1.7730   -1.5510 H         1 LIG      0.091450
     61 H22        -1.2500    2.2190    0.0530 H         1 LIG      0.091450
     62 H23         5.6640    4.9510    0.0580 H         1 LIG      0.182000
     63 H24         7.9790    4.1310   -0.0450 H         1 LIG      0.189000
     64 H25         1.0320    3.0910    0.0960 H         1 LIG      0.428800
     65 H26        -2.2490    0.5240    1.4330 H         1 LIG      0.445800
     66 H27        -7.8810    3.0140    0.1310 H         1 LIG      0.458300
     67 H28        -9.0530    2.9150   -1.0490 H         1 LIG      0.458300
@<TRIPOS>BOND
     1    1    2 1   
     2    2    9 ar  
     3    2    3 ar  
     4    3    4 ar  
     5    4    6 ar  
     6    4    5 1   
     7    5   28 3   
     8    7    8 1   
     9    7    6 ar  
    10    9    7 ar  
    11   10   34 1   
    12   11   29 ar  
    13   12   23 1   
    14   13   14 1   
    15   13   12 1   
    16   14   31 1   
    17   15   16 1   
    18   16   21 ar  
    19   17   18 ar  
    20   17   16 ar  
    21   18   19 ar  
    22   19   37 1   
    23   19   20 ar  
    24   21   20 ar  
    25   23   22 1   
    26   24   27 ar  
    27   25   24 1   
    28   25   26 2   
    29   26   38 1   
    30   27   10 ar  
    31   27   38 1   
    32   29   10 ar  
    33   30   12 1   
    34   30   11 1   
    35   31   15 1   
    36   31   22 1   
    37   32   37 1   
    38   33   11 ar  
    39   33   24 ar  
    40   34    9 1   
    41   37   36 2   
    42   37   35 2   
    43    1   39 1   
    44    1   40 1   
    45    1   41 1   
    46    3   42 1   
    47    6   43 1   
    48    8   44 1   
    49    8   45 1   
    50    8   46 1   
    51   12   47 1   
    52   13   48 1   
    53   13   49 1   
    54   14   50 1   
    55   14   51 1   
    56   15   52 1   
    57   15   53 1   
    58   17   54 1   
    59   18   55 1   
    60   20   56 1   
    61   21   57 1   
    62   22   58 1   
    63   22   59 1   
    64   23   60 1   
    65   23   61 1   
    66   25   62 1   
    67   26   63 1   
    68   30   64 1   
    69   31   65 1   
    70   32   66 1   
    71   32   67 1   
@<TRIPOS>SUBSTRUCTURE
     1 LIG         1 TEMP              0 ****  ****    0 ROOT
