@<TRIPOS>MOLECULE
9AR
   36    39     1     0     0
SMALL
bcc


@<TRIPOS>ATOM
      1 C           0.0600    0.1050    2.4310 ca        1 LIG     -0.081600
      2 C1         -1.2080    0.1960    3.0050 ca        1 LIG     -0.089000
      3 C2         -2.3420    0.2050    2.2100 ca        1 LIG      0.058100
      4 C3         -2.2320    0.1240    0.8240 ca        1 LIG      0.015100
      5 C4         -0.9680    0.0260    0.2280 ca        1 LIG     -0.005000
      6 C5          0.1860    0.0200    1.0310 ca        1 LIG     -0.014000
      7 C6         -0.8240   -0.0520   -1.2310 ca        1 LIG     -0.019000
      8 C7          0.4680   -0.1490   -1.8040 ca        1 LIG     -0.013000
      9 C8          1.6100   -0.1610   -0.9930 ca        1 LIG     -0.109000
     10 C9          1.5080   -0.0790    0.3950 ca        1 LIG     -0.056200
     11 C10        -1.9480   -0.0390   -2.0550 ca        1 LIG     -0.085000
     12 C11        -1.8030   -0.1130   -3.4240 ca        1 LIG     -0.202000
     13 C12        -0.5410   -0.2020   -4.0010 ca        1 LIG      0.082100
     14 C13         0.5940   -0.2180   -3.2090 ca        1 LIG      0.076100
     15 C14        -4.3770   -0.1610    1.3670 c3        1 LIG      0.323200
     16 C15         1.2590    0.0960    3.2840 c         1 LIG      0.912200
     17 C16         2.2620    1.0320   -4.0210 c3        1 LIG      0.114700
     18 O           1.8230   -0.3050   -3.7800 os        1 LIG     -0.329900
     19 O1         -3.6660    0.2840    2.5370 os        1 LIG     -0.339900
     20 O2         -3.4830    0.1520    0.2840 os        1 LIG     -0.357900
     21 O3          2.0990    0.9660    3.1610 o         1 LIG     -0.797300
     22 O4          1.4270   -0.8770    4.2010 o         1 LIG     -0.797300
     23 O5         -0.4210   -0.2740   -5.3540 oh        1 LIG     -0.498100
     24 O6          2.8360   -1.1540    2.0570 o         1 LIG     -0.200000
     25 O7          3.4260    0.8080    1.0500 o         1 LIG     -0.200000
     26 N           2.6120   -0.0920    1.1470 no        1 LIG      0.331200
     27 H          -1.3020    0.2570    4.0310 ha        1 LIG      0.183000
     28 H1          2.5420   -0.2320   -1.4300 ha        1 LIG      0.170000
     29 H2         -2.8900    0.0260   -1.6400 ha        1 LIG      0.159000
     30 H3         -2.6400   -0.1020   -4.0270 ha        1 LIG      0.126000
     31 H4         -5.3030    0.3640    1.2610 h2        1 LIG      0.054200
     32 H5         -4.6320   -1.2000    1.4070 h2        1 LIG      0.054200
     33 H6          3.2320    1.0130   -4.4730 h1        1 LIG      0.041367
     34 H7          2.3110    1.5640   -3.0940 h1        1 LIG      0.041367
     35 H8          1.5720    1.5210   -4.6770 h1        1 LIG      0.041367
     36 H9         -1.1870   -0.2630   -5.8940 ho        1 LIG      0.411000
@<TRIPOS>BOND
     1    1    2 ar  
     2    1    6 ar  
     3    1   16 1   
     4    2    3 ar  
     5    3    4 ar  
     6    3   19 1   
     7    4    5 ar  
     8    4   20 1   
     9    5    6 ar  
    10    5    7 ar  
    11    6   10 ar  
    12    7    8 ar  
    13    7   11 ar  
    14    8    9 ar  
    15    8   14 ar  
    16    9   10 ar  
    17   10   26 1   
    18   11   12 ar  
    19   12   13 ar  
    20   13   14 ar  
    21   13   23 1   
    22   14   18 1   
    23   15   19 1   
    24   15   20 1   
    25   16   21 1   
    26   16   22 1   
    27   17   18 1   
    28   24   26 1   
    29   25   26 1   
    30    2   27 1   
    31    9   28 1   
    32   11   29 1   
    33   12   30 1   
    34   15   31 1   
    35   15   32 1   
    36   17   33 1   
    37   17   34 1   
    38   17   35 1   
    39   23   36 1   
@<TRIPOS>SUBSTRUCTURE
     1 LIG         1 TEMP              0 ****  ****    0 ROOT
