@<TRIPOS>MOLECULE
SUP
   48    49     1     0     0
SMALL
bcc


@<TRIPOS>ATOM
      1 C          -2.4800    0.8500   -0.3010 C.3       1 LIG      0.303900
      2 C1         -3.2830    1.1140    0.9750 C.3       1 LIG      0.108100
      3 C2         -3.3140   -0.1650    1.8190 C.3       1 LIG      0.070100
      4 C3         -3.8320   -1.3150    0.9470 C.3       1 LIG      0.091100
      5 C4         -2.9870   -1.3950   -0.3260 C.3       1 LIG      0.075100
      6 C5         -3.4740   -2.5620   -1.1870 C.3       1 LIG      0.144400
      7 O          -1.1560    0.4430    0.0490 O.2       1 LIG     -0.452600
      8 O1         -2.6660    2.1660    1.7200 O.h       1 LIG     -0.587800
      9 O2         -4.1810    0.0200    2.9400 O.h       1 LIG     -0.577800
     10 O3         -3.7310   -2.5450    1.6670 O.h       1 LIG     -0.595800
     11 O4         -3.1070   -0.1800   -1.0620 O.2       1 LIG     -0.450600
     12 O5         -2.6250   -2.6990   -2.3280 O.h       1 LIG     -0.623800
     13 C6         -0.9560    0.6030   -2.3600 C.3       1 LIG      0.115400
     14 C7         -0.2980    0.8800   -1.0070 C.3       1 LIG      0.281600
     15 C8         -0.0160    2.3910   -0.8610 C.3       1 LIG      0.087100
     16 C9          1.3710    2.3990   -0.1560 C.3       1 LIG      0.135100
     17 C10         2.0270    1.1430   -0.7830 C.3       1 LIG      0.067100
     18 C11         3.1080    0.5860    0.1460 C.3       1 LIG      0.235400
     19 O6         -1.0650   -0.8080   -2.5560 O.h       1 LIG     -0.634800
     20 O7          0.9580    0.1950   -0.9280 O.2       1 LIG     -0.435600
     21 O8         -1.0050    3.0220   -0.0450 O.h       1 LIG     -0.617800
     22 O9          2.1070    3.5800   -0.4800 O.h       1 LIG     -0.670800
     23 O10         3.6900   -0.5770   -0.4440 O.2       1 LIG     -0.557200
     24 P           4.7250   -1.1770    0.6330 P.5       1 LIG      1.333900
     25 O11         4.0180   -1.4320    1.9080 O.3       1 LIG     -0.930833
     26 O12         5.3400   -2.5570    0.0760 O.3       1 LIG     -0.930833
     27 O13         5.9140   -0.1210    0.8800 O.3       1 LIG     -0.930833
     28 H          -2.4400    1.7450   -0.8850 H         1 LIG      0.114700
     29 H1         -4.2810    1.4030    0.7210 H         1 LIG      0.065700
     30 H2         -2.3310   -0.3930    2.1750 H         1 LIG      0.111700
     31 H3         -4.8560   -1.1410    0.6910 H         1 LIG      0.065700
     32 H4         -1.9620   -1.5470   -0.0610 H         1 LIG      0.089700
     33 H5         -4.4770   -2.3730   -1.5090 H         1 LIG      0.043700
     34 H6         -3.4480   -3.4640   -0.6130 H         1 LIG      0.043700
     35 H7         -1.7600    1.9090    1.9530 H         1 LIG      0.440000
     36 H8         -5.0750    0.2270    2.6260 H         1 LIG      0.392000
     37 H9         -2.8040   -2.7070    1.9020 H         1 LIG      0.410000
     38 H10        -2.6490   -1.8810   -2.8490 H         1 LIG      0.439000
     39 H11        -0.3590    1.0260   -3.1400 H         1 LIG      0.048700
     40 H12        -1.9310    1.0420   -2.3790 H         1 LIG      0.048700
     41 H13        -0.0330    2.9220   -1.7900 H         1 LIG      0.081700
     42 H14         1.3250    2.3880    0.9130 H         1 LIG      0.120700
     43 H15         2.5000    1.3620   -1.7170 H         1 LIG      0.072700
     44 H16         2.6700    0.3270    1.0870 H         1 LIG      0.000700
     45 H17         3.8650    1.3270    0.2960 H         1 LIG      0.000700
     46 H18        -0.1810   -1.2060   -2.5390 H         1 LIG      0.435000
     47 H19        -1.0400    2.5830    0.8190 H         1 LIG      0.422000
     48 H20         2.1890    3.6560   -1.4440 H         1 LIG      0.504000
@<TRIPOS>BOND
     1    1    2 1   
     2    1    7 1   
     3    1   11 1   
     4    2    3 1   
     5    2    8 1   
     6    3    4 1   
     7    3    9 1   
     8    4    5 1   
     9    4   10 1   
    10    5    6 1   
    11    5   11 1   
    12    6   12 1   
    13    7   14 1   
    14   13   14 1   
    15   13   19 1   
    16   14   15 1   
    17   14   20 1   
    18   15   16 1   
    19   15   21 1   
    20   16   17 1   
    21   16   22 1   
    22   17   18 1   
    23   17   20 1   
    24   18   23 1   
    25   23   24 1   
    26   24   25 1   
    27   24   26 1   
    28   24   27 1   
    29    1   28 1   
    30    2   29 1   
    31    3   30 1   
    32    4   31 1   
    33    5   32 1   
    34    6   33 1   
    35    6   34 1   
    36    8   35 1   
    37    9   36 1   
    38   10   37 1   
    39   12   38 1   
    40   13   39 1   
    41   13   40 1   
    42   15   41 1   
    43   16   42 1   
    44   17   43 1   
    45   18   44 1   
    46   18   45 1   
    47   19   46 1   
    48   21   47 1   
    49   22   48 1   
@<TRIPOS>SUBSTRUCTURE
     1 LIG         1 TEMP              0 ****  ****    0 ROOT
