@<TRIPOS>MOLECULE
5EJ
   40    41     1     0     0
SMALL
bcc


@<TRIPOS>ATOM
      1 C           5.3370    1.9800    1.0340 c3        1 LIG      0.136400
      2 C1          1.9060   -0.0230    0.5740 c         1 LIG      0.822900
      3 P          -4.6320    1.3840   -0.2280 p5        1 LIG      1.341900
      4 O          -4.2010    2.3160    0.8380 o         1 LIG     -0.926167
      5 O1         -3.4690    0.3030   -0.4970 os        1 LIG     -0.569200
      6 C2         -2.9140   -0.5160    0.5340 c3        1 LIG      0.222400
      7 C3         -1.8380   -1.4260   -0.0620 c3        1 LIG      0.062100
      8 C4         -1.3110   -2.4070    1.0080 c3        1 LIG      0.108100
      9 O2         -1.9470   -3.6800    0.8770 oh        1 LIG     -0.653800
     10 C5          0.1990   -2.5220    0.7010 c3        1 LIG     -0.119400
     11 C6          0.4060   -1.5970   -0.5180 c3        1 LIG      0.292500
     12 O3         -0.6830   -0.6510   -0.4520 os        1 LIG     -0.440600
     13 N           1.6930   -0.9040   -0.4210 n         1 LIG     -0.367000
     14 C7          2.6680   -1.1540   -1.3370 cc        1 LIG      0.073600
     15 C8          3.8550   -0.5060   -1.2350 cd        1 LIG     -0.350800
     16 C9          4.9530   -0.7620   -2.2350 c3        1 LIG     -0.045900
     17 C10         4.0440    0.4080   -0.1830 cd        1 LIG      0.716900
     18 N1          3.0660    0.6240    0.6830 nc        1 LIG     -0.780100
     19 O4          1.0210    0.1890    1.3870 o         1 LIG     -0.691500
     20 O5          5.2180    1.0670   -0.0590 os        1 LIG     -0.414400
     21 O6         -5.9740    0.6250    0.2330 o         1 LIG     -0.926167
     22 C11         6.7240    2.6250    1.0100 c3        1 LIG     -0.100100
     23 O7         -4.9190    2.2110   -1.5790 o         1 LIG     -0.926167
     24 H           5.2050    1.4520    1.9560 h1        1 LIG      0.045200
     25 H1          4.5880    2.7400    0.9480 h1        1 LIG      0.045200
     26 H2         -3.6870   -1.1150    0.9690 h1        1 LIG     -0.002300
     27 H3         -2.4780    0.1060    1.2880 h1        1 LIG     -0.002300
     28 H4         -2.2850   -1.9330   -0.8920 h1        1 LIG      0.045700
     29 H5         -1.5050   -2.0720    2.0060 h1        1 LIG      0.146700
     30 H6         -1.7980   -4.0260   -0.0170 ho        1 LIG      0.478000
     31 H7          0.4620   -3.5310    0.4610 hc        1 LIG      0.050700
     32 H8          0.8100   -2.2460    1.5350 hc        1 LIG      0.050700
     33 H9          0.4160   -2.1390   -1.4410 h2        1 LIG      0.091700
     34 H10         2.5060   -1.8290   -2.1010 h4        1 LIG      0.303000
     35 H11         4.6210   -1.4830   -2.9530 hc        1 LIG      0.057033
     36 H12         5.8170   -1.1360   -1.7280 hc        1 LIG      0.057033
     37 H13         5.2000    0.1510   -2.7350 hc        1 LIG      0.057033
     38 H14         7.4720    1.8650    1.0960 hc        1 LIG      0.035700
     39 H15         6.8140    3.3080    1.8280 hc        1 LIG      0.035700
     40 H16         6.8560    3.1520    0.0880 hc        1 LIG      0.035700
@<TRIPOS>BOND
     1    2   19 2   
     2    3    4 1   
     3    3    5 1   
     4    3   23 1   
     5    6    5 1   
     6    6    7 1   
     7    7    8 1   
     8    8   10 1   
     9    8    9 1   
    10   11   10 1   
    11   12    7 1   
    12   12   11 1   
    13   13   11 1   
    14   13    2 1   
    15   14   13 1   
    16   15   14 2   
    17   15   17 1   
    18   16   15 1   
    19   17   18 2   
    20   18    2 1   
    21   20   17 1   
    22   20    1 1   
    23   21    3 1   
    24   22    1 1   
    25    1   24 1   
    26    1   25 1   
    27    6   26 1   
    28    6   27 1   
    29    7   28 1   
    30    8   29 1   
    31    9   30 1   
    32   10   31 1   
    33   10   32 1   
    34   11   33 1   
    35   14   34 1   
    36   16   35 1   
    37   16   36 1   
    38   16   37 1   
    39   22   38 1   
    40   22   39 1   
    41   22   40 1   
@<TRIPOS>SUBSTRUCTURE
     1 LIG         1 TEMP              0 ****  ****    0 ROOT
