@<TRIPOS>MOLECULE
PFB
   16    16     1     0     0
SMALL
bcc


@<TRIPOS>ATOM
      1 C           0.0000    0.2310    1.1260 ca        1 LIG     -0.158300
      2 C1         -1.1980    0.1570    0.4380 ca        1 LIG      0.134900
      3 C2         -1.2000    0.0090   -0.9390 ca        1 LIG      0.072400
      4 C3         -0.0000   -0.0660   -1.6280 ca        1 LIG      0.107900
      5 C4          1.1990    0.0070   -0.9390 ca        1 LIG      0.072400
      6 C5          1.1990    0.1620    0.4370 ca        1 LIG      0.134900
      7 C6          0.0000    0.3930    2.6240 c3        1 LIG      0.177700
      8 F          -2.3680    0.2310    1.1110 f         1 LIG     -0.110900
      9 F1         -2.3700   -0.0620   -1.6100 f         1 LIG     -0.098900
     10 F2         -0.0000   -0.2100   -2.9710 f         1 LIG     -0.095900
     11 F3          2.3690   -0.0650   -1.6100 f         1 LIG     -0.098900
     12 F4          2.3680    0.2330    1.1090 f         1 LIG     -0.110900
     13 O           0.0000   -0.8940    3.2430 oh        1 LIG     -0.579800
     14 H          -0.8740    0.9330    2.9240 h1        1 LIG      0.071700
     15 H1          0.8740    0.9330    2.9240 h1        1 LIG      0.071700
     16 H2         -0.7920   -1.3830    2.9710 ho        1 LIG      0.409000
@<TRIPOS>BOND
     1    1    2 ar  
     2    1    6 ar  
     3    1    7 1   
     4    2    3 ar  
     5    2    8 1   
     6    3    4 ar  
     7    3    9 1   
     8    4    5 ar  
     9    4   10 1   
    10    5    6 ar  
    11    5   11 1   
    12    6   12 1   
    13    7   13 1   
    14    7   14 1   
    15    7   15 1   
    16   13   16 1   
@<TRIPOS>SUBSTRUCTURE
     1 LIG         1 TEMP              0 ****  ****    0 ROOT
