@<TRIPOS>MOLECULE
B98
   35    37     1     0     0
SMALL
bcc


@<TRIPOS>ATOM
      1 C           3.9610   -0.5490   -0.0370 ca        1 LIG     -0.152000
      2 C1          3.0200   -1.5490   -0.0690 ca        1 LIG     -0.065000
      3 C2          2.2300    1.1100    0.0720 ca        1 LIG     -0.129000
      4 C3          1.2500    0.0910    0.0410 ca        1 LIG     -0.088800
      5 C4         -0.2100    0.2470    0.0790 cc        1 LIG      0.189800
      6 C5          3.5650    0.7850    0.0320 ca        1 LIG      0.136100
      7 C6          1.6530   -1.2360   -0.0320 ca        1 LIG     -0.094100
      8 C7         -0.8810   -0.9390    0.0270 cd        1 LIG     -0.310600
      9 C8         -2.2820   -1.1500    0.0440 c         1 LIG      0.737700
     10 C9         -2.0140    1.7240   -0.5140 c3        1 LIG      0.166800
     11 C10        -3.1970    1.1370    0.2130 c3        1 LIG      0.039700
     12 C11         5.8720    1.3620    0.0190 c3        1 LIG      0.108700
     13 C12        -4.4790    1.7540   -0.3500 c3        1 LIG      0.098800
     14 N          -0.7620    1.5230    0.1580 nh        1 LIG     -0.723000
     15 N1         -3.2750   -0.2980    0.0830 n         1 LIG     -0.553900
     16 N2         -5.6440    1.1530    0.3130 n4        1 LIG     -0.835600
     17 O          -2.6190   -2.3200    0.0180 o         1 LIG     -0.611500
     18 O1          4.5030    1.7690    0.0620 os        1 LIG     -0.321900
     19 S           0.2520   -2.2900   -0.0660 ss        1 LIG      0.171500
     20 H           4.9650   -0.7870   -0.0640 ha        1 LIG      0.157000
     21 H1          3.3200   -2.5350   -0.1200 ha        1 LIG      0.155000
     22 H2          1.9420    2.1000    0.1250 ha        1 LIG      0.151000
     23 H3         -2.1730    2.7760   -0.6230 h1        1 LIG      0.064200
     24 H4         -1.9460    1.2200   -1.4560 h1        1 LIG      0.064200
     25 H5         -3.0790    1.3600    1.2530 h1        1 LIG      0.096700
     26 H6          6.5020    2.2260    0.0490 h1        1 LIG      0.054700
     27 H7          6.0540    0.8190   -0.8840 h1        1 LIG      0.054700
     28 H8          6.0850    0.7360    0.8610 h1        1 LIG      0.054700
     29 H9         -4.5320    1.5680   -1.4020 hx        1 LIG      0.107700
     30 H10        -4.4740    2.8090   -0.1740 hx        1 LIG      0.107700
     31 H11        -0.3160    2.2500    0.6500 hn        1 LIG      0.437800
     32 H12        -4.1800   -0.6800    0.0160 hn        1 LIG      0.314500
     33 H13        -5.6490    0.1470    0.1450 hn        1 LIG      0.471467
     34 H14        -6.4990    1.5640   -0.0620 hn        1 LIG      0.471467
     35 H15        -5.5930    1.3300    1.3160 hn        1 LIG      0.471467
@<TRIPOS>BOND
     1    1    2 ar  
     2    1    6 ar  
     3    2    7 ar  
     4    3    4 ar  
     5    3    6 ar  
     6    4    5 1   
     7    4    7 ar  
     8    5    8 2   
     9    5   14 1   
    10    6   18 1   
    11    7   19 1   
    12    8    9 1   
    13    8   19 1   
    14    9   15 1   
    15    9   17 2   
    16   10   11 1   
    17   10   14 1   
    18   11   13 1   
    19   11   15 1   
    20   12   18 1   
    21   13   16 1   
    22    1   20 1   
    23    2   21 1   
    24    3   22 1   
    25   10   23 1   
    26   10   24 1   
    27   11   25 1   
    28   12   26 1   
    29   12   27 1   
    30   12   28 1   
    31   13   29 1   
    32   13   30 1   
    33   14   31 1   
    34   15   32 1   
    35   16   33 1   
    36   16   34 1   
    37   16   35 1   
@<TRIPOS>SUBSTRUCTURE
     1 LIG         1 TEMP              0 ****  ****    0 ROOT
