@<TRIPOS>MOLECULE
CME
   22    21     1     0     0
SMALL
bcc


@<TRIPOS>ATOM
      1 N1          1.9710   -0.4330   -2.7430 N.4       1 <1>     -0.842600
      2 C1          0.7560   -0.3890   -1.9170 C.3       1 <1>     -0.084500
      3 C2          0.9720    0.5680   -0.7440 C.3       1 <1>     -0.038300
      4 S1         -0.5380    0.6490    0.2550 S.3       1 <1>     -0.136100
      5 S2         -0.4230   -1.1550    1.2210 S.3       1 <1>     -0.255100
      6 C3          0.5120   -0.6640    2.6950 C.3       1 <1>     -0.044300
      7 C4         -0.2680    0.4030    3.4630 C.3       1 <1>      0.128400
      8 O1          0.4680    0.7900    4.6250 O.h       1 <1>     -0.584800
      9 C5         -0.4010    0.0910   -2.7530 C.        1 <1>      0.941600
     10 O2         -0.2080    0.8510   -3.6720 O.3       1 <1>     -0.747800
     11 O3         -1.6470   -0.3240   -2.4760 O.3       1 <1>     -0.747800
     12 H1          2.7550   -0.7580   -2.1770 H         1 <1>      0.449467
     13 H2          2.1730    0.5010   -3.1000 H         1 <1>      0.449467
     14 H3          1.8280   -1.0720   -3.5250 H         1 <1>      0.449467
     15 H4          0.5420   -1.3680   -1.5420 H         1 <1>      0.104700
     16 H5          1.2050    1.5430   -1.1170 H         1 <1>      0.125700
     17 H6          1.7810    0.2150   -0.1400 H         1 <1>      0.125700
     18 H7          1.4610   -0.2680    2.4000 H         1 <1>      0.087700
     19 H8          0.6610   -1.5180    3.3230 H         1 <1>      0.087700
     20 H9         -1.2170    0.0070    3.7580 H         1 <1>      0.066200
     21 H10        -0.4160    1.2570    2.8350 H         1 <1>      0.066200
     22 H11         0.6030    0.0170    5.1950 H         1 <1>      0.399000
@<TRIPOS>BOND
     1    1    2 1   
     2    2    3 1   
     3    2    9 1   
     4    3    4 1   
     5    4    5 1   
     6    5    6 1   
     7    6    7 1   
     8    7    8 1   
     9    9   10 1   
    10    9   11 1   
    11    1   12 1   
    12    1   13 1   
    13    1   14 1   
    14    2   15 1   
    15    3   16 1   
    16    3   17 1   
    17    6   18 1   
    18    6   19 1   
    19    7   20 1   
    20    7   21 1   
    21    8   22 1   
@<TRIPOS>SUBSTRUCTURE
     1 <1>         1 TEMP              0 ****  ****    0 ROOT
