@<TRIPOS>MOLECULE
DQH
   34    36     1     0     0
SMALL
bcc


@<TRIPOS>ATOM
      1 C          -0.5030    0.2670    4.4860 C.a       1 LIG     -0.358000
      2 C1          0.6150    0.0480    3.7040 C.a       1 LIG      0.256100
      3 C2          0.4700   -0.1160    2.3170 C.a       1 LIG     -0.310600
      4 C3         -0.8020   -0.0970    1.7230 C.a       1 LIG      0.233100
      5 C4         -1.9100    0.1310    2.5300 C.a       1 LIG     -0.239000
      6 C5         -1.7600    0.3130    3.8960 C.a       1 LIG      0.226100
      7 C6          1.6590   -0.2970    1.4690 C.        1 LIG      0.565700
      8 C7          1.3710   -0.6150    0.0100 C.3       1 LIG      0.021100
      9 C8          0.1070    0.1780   -0.3550 C.3       1 LIG      0.176400
     10 C9         -0.1860    0.0030   -1.8230 C.a       1 LIG     -0.080300
     11 C10        -0.9940   -1.0340   -2.2460 C.a       1 LIG     -0.097000
     12 C11        -1.2660   -1.1990   -3.5920 C.a       1 LIG     -0.173000
     13 C12        -0.7290   -0.3210   -4.5190 C.a       1 LIG      0.052100
     14 C13         0.0840    0.7240   -4.0930 C.a       1 LIG      0.108100
     15 C14         0.3490    0.8860   -2.7430 C.a       1 LIG     -0.107000
     16 O          -0.9950   -0.2930    0.4030 O.2       1 LIG     -0.313900
     17 O1          2.7880   -0.1980    1.9030 O.3       1 LIG     -0.507100
     18 O2          0.6140    1.5880   -5.0000 O.h       1 LIG     -0.494100
     19 O3         -0.9960   -0.4810   -5.8430 O.h       1 LIG     -0.515100
     20 O4          2.4660   -0.2020   -0.8090 O.h       1 LIG     -0.569800
     21 O5         -2.8540    0.5390    4.6660 O.h       1 LIG     -0.483100
     22 O6          1.8450   -0.0070    4.2730 O.h       1 LIG     -0.458100
     23 H          -0.4050    0.3960    5.5050 H         1 LIG      0.143000
     24 H1         -2.8520    0.1650    2.1090 H         1 LIG      0.176000
     25 H2          1.2330   -1.6650   -0.1440 H         1 LIG      0.103700
     26 H3          0.2670    1.2140   -0.1380 H         1 LIG      0.067700
     27 H4         -1.3960   -1.6880   -1.5560 H         1 LIG      0.144000
     28 H5         -1.8690   -1.9760   -3.9050 H         1 LIG      0.138000
     29 H6          0.9460    1.6650   -2.4240 H         1 LIG      0.155000
     30 H7          0.4340    1.4780   -5.9130 H         1 LIG      0.438000
     31 H8         -1.5440   -1.1850   -6.1290 H         1 LIG      0.431000
     32 H9          2.6170    0.7490   -0.6920 H         1 LIG      0.421000
     33 H10        -2.7590    0.6630    5.5900 H         1 LIG      0.427000
     34 H11         1.9380    0.1030    5.1990 H         1 LIG      0.425000
@<TRIPOS>BOND
     1    1    2 ar  
     2    1    6 ar  
     3    2    3 ar  
     4    2   22 1   
     5    3    4 ar  
     6    3    7 1   
     7    4    5 ar  
     8    4   16 1   
     9    5    6 ar  
    10    6   21 1   
    11    7    8 1   
    12    7   17 2   
    13    8    9 1   
    14    8   20 1   
    15    9   10 1   
    16    9   16 1   
    17   10   11 ar  
    18   10   15 ar  
    19   11   12 ar  
    20   12   13 ar  
    21   13   14 ar  
    22   13   19 1   
    23   14   15 ar  
    24   14   18 1   
    25    1   23 1   
    26    5   24 1   
    27    8   25 1   
    28    9   26 1   
    29   11   27 1   
    30   12   28 1   
    31   15   29 1   
    32   18   30 1   
    33   19   31 1   
    34   20   32 1   
    35   21   33 1   
    36   22   34 1   
@<TRIPOS>SUBSTRUCTURE
     1 LIG         1 TEMP              0 ****  ****    0 ROOT
