@<TRIPOS>MOLECULE
ID1
   38    38     1     0     0
SMALL
bcc


@<TRIPOS>ATOM
      1 C          -2.0930    1.4520    1.2630 C.        1 LIG      0.592900
      2 C1          0.1940   -0.8320   -0.8580 C.3       1 LIG     -0.101900
      3 C2         -2.5890    1.4550   -0.1610 C.3       1 LIG     -0.200700
      4 C3         -1.8670    0.3640   -0.9540 C.3       1 LIG      0.100500
      5 CA         -0.9520   -1.6000   -0.2380 C.e       1 LIG      0.395300
      6 O          -1.5690    2.4390    1.7210 O.3       1 LIG     -0.580100
      7 C4         -4.0950    1.1860   -0.1770 C.3       1 LIG      0.143100
      8 O1         -4.5650    1.1890   -1.5260 O.h       1 LIG     -0.594800
      9 C5         -4.8160    2.2770    0.6170 C.3       1 LIG     -0.136100
     10 N          -2.0390   -0.9390   -0.3020 N.2       1 LIG     -0.603900
     11 C6         -0.8270   -2.9490    0.3660 C.        1 LIG      0.854300
     12 OXT         0.2450   -3.5190    0.3620 O.3       1 LIG     -0.796800
     13 O2         -1.9030   -3.5420    0.9180 O.3       1 LIG     -0.796800
     14 S           1.6620   -0.9030    0.2060 S.3       1 LIG     -0.266200
     15 C7          2.9050    0.0040   -0.7550 C.3       1 LIG     -0.049300
     16 C8          4.2580   -0.0760   -0.0430 C.3       1 LIG      0.134800
     17 N1          5.2620    0.6560   -0.8190 N.2       1 LIG     -0.713900
     18 C9          5.8440    1.6920   -0.3080 C.2       1 LIG      0.626100
     19 N2          5.6250    2.0240    1.0020 N.h       1 LIG     -0.969800
     20 C10        -0.3410    0.6170   -0.9510 C.3       1 LIG     -0.118400
     21 H          -2.2010    0.6070    1.8460 H         1 LIG      0.041200
     22 H1          0.4920   -1.2270   -1.8070 H         1 LIG      0.105700
     23 H2         -2.3930    2.4080   -0.6060 H         1 LIG      0.056700
     24 H3         -2.2750    0.3760   -1.9430 H         1 LIG      0.071700
     25 H4         -4.2920    0.2330    0.2670 H         1 LIG      0.112700
     26 H5         -4.3860    2.0530   -1.9290 H         1 LIG      0.387000
     27 H6         -4.6190    3.2300    0.1730 H         1 LIG      0.041367
     28 H7         -4.4640    2.2750    1.6270 H         1 LIG      0.041367
     29 H8         -5.8690    2.0890    0.6060 H         1 LIG      0.041367
     30 H9          2.6090    1.0280   -0.8450 H         1 LIG      0.061700
     31 H10         2.9890   -0.4290   -1.7300 H         1 LIG      0.061700
     32 H11         4.5540   -1.1000    0.0470 H         1 LIG      0.053200
     33 H12         4.1750    0.3580    0.9320 H         1 LIG      0.053200
     34 H13         6.4740    2.2680   -0.8880 H         1 LIG      0.005800
     35 H14         5.0240    1.4740    1.5550 H         1 LIG      0.423800
     36 H15         6.0680    2.8130    1.3910 H         1 LIG      0.423800
     37 H16        -0.0200    1.0980   -1.8510 H         1 LIG      0.048700
     38 H17        -0.0010    1.2650   -0.1700 H         1 LIG      0.048700
@<TRIPOS>BOND
     1    1    3 1   
     2    1    6 2   
     3    2   20 1   
     4    3    4 1   
     5    3    7 1   
     6    4   20 1   
     7    5   10 2   
     8    5    2 1   
     9    7    8 1   
    10    9    7 1   
    11   10    4 1   
    12   11   13 1   
    13   11    5 1   
    14   12   11 1   
    15   14    2 1   
    16   14   15 1   
    17   15   16 1   
    18   17   16 1   
    19   17   18 2   
    20   18   19 1   
    21    1   21 1   
    22    2   22 1   
    23    3   23 1   
    24    4   24 1   
    25    7   25 1   
    26    8   26 1   
    27    9   27 1   
    28    9   28 1   
    29    9   29 1   
    30   15   30 1   
    31   15   31 1   
    32   16   32 1   
    33   16   33 1   
    34   18   34 1   
    35   19   35 1   
    36   19   36 1   
    37   20   37 1   
    38   20   38 1   
@<TRIPOS>SUBSTRUCTURE
     1 LIG         1 TEMP              0 ****  ****    0 ROOT
