@<TRIPOS>MOLECULE
9YE
   52    55     1     0     0
SMALL
bcc


@<TRIPOS>ATOM
      1 C           0.1460   -3.9300    0.0040 C.a       1 LIG     -0.090000
      2 C1         -2.1040    1.3960    0.0670 C.c       1 LIG     -0.086600
      3 C2         -2.9080    0.2710   -0.0370 C.d       1 LIG     -0.155600
      4 C3         -2.6630    2.7970    0.0860 C.3       1 LIG     -0.015100
      5 C4         -4.0690    2.7890   -0.5200 C.3       1 LIG     -0.068400
      6 C5         -4.9490    1.7390    0.1660 C.3       1 LIG     -0.182400
      7 C6         -4.3700    0.3630   -0.1290 C.        1 LIG      0.599700
      8 C7          3.7370   -0.4480    0.4210 C.3       1 LIG      0.166600
      9 C8          0.3190    1.9020    0.2590 C.3       1 LIG      0.028000
     10 C9          0.4510    2.7280   -1.0230 C.3       1 LIG     -0.109100
     11 C10         0.1070    2.8390    1.4500 C.3       1 LIG     -0.109100
     12 C11         1.5390   -3.9140    0.1100 C.a       1 LIG     -0.110000
     13 C12         4.3450    0.9270    0.5250 C.2       1 LIG     -0.198200
     14 C13         5.3610    1.2520   -0.2350 C.2       1 LIG     -0.101400
     15 C14         6.0070    0.2140   -1.1150 C.3       1 LIG     -0.063900
     16 C15         5.8850    2.6650   -0.2280 C.3       1 LIG     -0.063900
     17 C16         2.2460   -2.7400    0.2120 C.a       1 LIG     -0.169000
     18 C17         1.6110   -1.4900    0.2170 C.a       1 LIG      0.126100
     19 C18         0.2210   -1.4900    0.1120 C.a       1 LIG     -0.015000
     20 C19        -0.4990   -2.7030    0.0010 C.a       1 LIG     -0.144600
     21 C20        -0.7340   -0.3690    0.0900 C.c       1 LIG     -0.051300
     22 C21        -2.0200   -0.8850   -0.0250 C.d       1 LIG     -0.187600
     23 C22        -1.9300   -2.3580   -0.0890 C.        1 LIG      0.620300
     24 N          -0.8270    0.9970    0.1400 N.a       1 LIG      0.012900
     25 O          -2.8570   -3.1360   -0.1980 O.3       1 LIG     -0.479100
     26 O1         -5.0650   -0.5880   -0.4200 O.3       1 LIG     -0.513100
     27 O2          2.3160   -0.3340    0.3190 O.2       1 LIG     -0.345900
     28 H          -0.3790   -4.8150   -0.0690 H         1 LIG      0.158000
     29 H1         -2.0300    3.4420   -0.4870 H         1 LIG      0.055200
     30 H2         -2.7090    3.1510    1.0950 H         1 LIG      0.055200
     31 H3         -4.0000    2.5620   -1.5630 H         1 LIG      0.051700
     32 H4         -4.5100    3.7530   -0.3780 H         1 LIG      0.051700
     33 H5         -5.9480    1.8000   -0.2130 H         1 LIG      0.071200
     34 H6         -4.9720    1.9100    1.2220 H         1 LIG      0.071200
     35 H7          4.1190   -0.9420   -0.4480 H         1 LIG      0.051700
     36 H8          3.9880   -1.0160    1.2930 H         1 LIG      0.051700
     37 H9          1.2110    1.3310    0.4090 H         1 LIG      0.104700
     38 H10        -0.4410    3.2990   -1.1730 H         1 LIG      0.049200
     39 H11         0.5990    2.0730   -1.8560 H         1 LIG      0.049200
     40 H12         1.2880    3.3900   -0.9360 H         1 LIG      0.049200
     41 H13        -0.7850    3.4100    1.3000 H         1 LIG      0.049200
     42 H14         0.9440    3.5000    1.5370 H         1 LIG      0.049200
     43 H15         0.0140    2.2620    2.3460 H         1 LIG      0.049200
     44 H16         2.0520   -4.8100    0.1120 H         1 LIG      0.140000
     45 H17         3.9610    1.6120    1.1950 H         1 LIG      0.140000
     46 H18         5.5050   -0.7230   -0.9890 H         1 LIG      0.045200
     47 H19         7.0360    0.1070   -0.8430 H         1 LIG      0.045200
     48 H20         5.9380    0.5210   -2.1380 H         1 LIG      0.045200
     49 H21         6.7100    2.7430   -0.9050 H         1 LIG      0.045200
     50 H22         6.2080    2.9210    0.7590 H         1 LIG      0.045200
     51 H23         5.1090    3.3350   -0.5340 H         1 LIG      0.045200
     52 H24         3.2750   -2.7800    0.2870 H         1 LIG      0.139000
@<TRIPOS>BOND
     1    2    3 ar  
     2    3   22 ar  
     3    3    7 1   
     4    4    2 1   
     5    4    5 1   
     6    5    6 1   
     7    6    7 1   
     8    7   26 2   
     9    8   27 1   
    10    9   24 1   
    11   10    9 1   
    12   11    9 1   
    13   12    1 ar  
    14   13    8 1   
    15   14   15 1   
    16   14   13 2   
    17   16   14 1   
    18   17   12 ar  
    19   18   17 ar  
    20   18   19 ar  
    21   19   20 ar  
    22   20    1 ar  
    23   20   23 1   
    24   21   19 1   
    25   21   22 ar  
    26   22   23 1   
    27   23   25 2   
    28   24    2 ar  
    29   24   21 ar  
    30   27   18 1   
    31    1   28 1   
    32    4   29 1   
    33    4   30 1   
    34    5   31 1   
    35    5   32 1   
    36    6   33 1   
    37    6   34 1   
    38    8   35 1   
    39    8   36 1   
    40    9   37 1   
    41   10   38 1   
    42   10   39 1   
    43   10   40 1   
    44   11   41 1   
    45   11   42 1   
    46   11   43 1   
    47   12   44 1   
    48   13   45 1   
    49   15   46 1   
    50   15   47 1   
    51   15   48 1   
    52   16   49 1   
    53   16   50 1   
    54   16   51 1   
    55   17   52 1   
@<TRIPOS>SUBSTRUCTURE
     1 LIG         1 TEMP              0 ****  ****    0 ROOT
