@<TRIPOS>MOLECULE
O7E
   41    42     1     0     0
SMALL
bcc


@<TRIPOS>ATOM
      1 O          -5.8370    0.2780   -0.1120 o         1 LIG     -0.930167
      2 P          -4.8130    0.0620    0.9350 p5        1 LIG      1.336900
      3 O1         -5.1360    0.9990    2.2040 o         1 LIG     -0.930167
      4 O2         -4.8280   -1.4820    1.3890 o         1 LIG     -0.930167
      5 O3         -3.3610    0.4350    0.3490 os        1 LIG     -0.563200
      6 C          -2.8290   -0.1480   -0.8430 c3        1 LIG      0.216400
      7 C1         -1.4360    0.4250   -1.1130 c3        1 LIG      0.062100
      8 O4         -0.4960   -0.0540   -0.1260 os        1 LIG     -0.441600
      9 C2         -0.8920   -0.0970   -2.4620 c3        1 LIG      0.134100
     10 O5         -1.0950    0.8730   -3.4910 oh        1 LIG     -0.682800
     11 C3          0.6170   -0.3050   -2.2030 c3        1 LIG      0.110100
     12 O6          1.3920    0.5300   -3.0650 oh        1 LIG     -0.605800
     13 C4          0.8060    0.1150   -0.7290 c3        1 LIG      0.280500
     14 N           1.7880   -0.7530   -0.0730 n         1 LIG     -0.360000
     15 C5          1.5200   -2.0620    0.0690 c         1 LIG      0.810500
     16 O7          0.4650   -2.4990   -0.3500 o         1 LIG     -0.645500
     17 N1          2.3860   -2.9010    0.6620 n         1 LIG     -0.594500
     18 C6          3.5630   -2.4450    1.1380 c         1 LIG      0.723700
     19 O8          4.3500   -3.2020    1.6750 o         1 LIG     -0.661500
     20 C7          3.8790   -1.0180    0.9940 cc        1 LIG     -0.330200
     21 C8          2.9720   -0.2140    0.3810 cd        1 LIG      0.127400
     22 C9          3.2470    1.2330    0.2140 c         1 LIG      0.670300
     23 O9          3.7380    1.6420   -0.8180 o         1 LIG     -0.549000
     24 O10         2.9530    2.0940    1.2070 os        1 LIG     -0.402900
     25 C10         3.2500    3.4960    0.9740 c3        1 LIG      0.154400
     26 C11         2.8490    4.3130    2.2040 c3        1 LIG     -0.128100
     27 H          -3.4730    0.0760   -1.6680 h1        1 LIG      0.007200
     28 H1         -2.7610   -1.2090   -0.7220 h1        1 LIG      0.007200
     29 H2         -1.5300    1.4910   -1.0990 h1        1 LIG      0.100700
     30 H3         -1.3810   -0.9920   -2.7870 h1        1 LIG      0.090700
     31 H4         -0.6660    1.7060   -3.2390 ho        1 LIG      0.520000
     32 H5          0.9330   -1.3100   -2.3890 h1        1 LIG      0.092700
     33 H6          1.1390    1.4570   -2.9310 ho        1 LIG      0.427000
     34 H7          1.1670    1.1180   -0.6370 h2        1 LIG      0.081700
     35 H8          2.1600   -3.8550    0.7500 hn        1 LIG      0.336500
     36 H9          4.7690   -0.6350    1.3500 ha        1 LIG      0.176000
     37 H10         2.7010    3.8400    0.1220 h1        1 LIG      0.041700
     38 H11         4.2980    3.6140    0.7940 h1        1 LIG      0.041700
     39 H12         1.8010    4.1950    2.3840 hc        1 LIG      0.069033
     40 H13         3.0680    5.3460    2.0330 hc        1 LIG      0.069033
     41 H14         3.3980    3.9690    3.0550 hc        1 LIG      0.069033
@<TRIPOS>BOND
     1    1    2 1   
     2    2    3 1   
     3    2    4 1   
     4    5    2 1   
     5    6    5 1   
     6    7    6 1   
     7    7    9 1   
     8    8   13 1   
     9    8    7 1   
    10    9   11 1   
    11   10    9 1   
    12   11   12 1   
    13   13   11 1   
    14   14   13 1   
    15   14   15 1   
    16   15   16 2   
    17   17   15 1   
    18   18   17 1   
    19   19   18 2   
    20   20   21 2   
    21   20   18 1   
    22   21   14 1   
    23   22   24 1   
    24   22   21 1   
    25   23   22 2   
    26   24   25 1   
    27   26   25 1   
    28    6   27 1   
    29    6   28 1   
    30    7   29 1   
    31    9   30 1   
    32   10   31 1   
    33   11   32 1   
    34   12   33 1   
    35   13   34 1   
    36   17   35 1   
    37   20   36 1   
    38   25   37 1   
    39   25   38 1   
    40   26   39 1   
    41   26   40 1   
    42   26   41 1   
@<TRIPOS>SUBSTRUCTURE
     1 LIG         1 TEMP              0 ****  ****    0 ROOT
