@<TRIPOS>MOLECULE
P6G
   45    44     1     0     0
SMALL
bcc


@<TRIPOS>ATOM
      1 O           7.8620   -0.2470   -0.4920 oh        1 LIG     -0.599800
      2 C           7.0640   -1.3010    0.0520 c3        1 LIG      0.131400
      3 C1          6.1470   -0.7380    1.1390 c3        1 LIG      0.087400
      4 O1          5.2190    0.1770    0.5530 os        1 LIG     -0.438600
      5 C2          4.3110    0.7630    1.4890 c3        1 LIG      0.129400
      6 C3          3.3690    1.7190    0.7540 c3        1 LIG      0.127400
      7 O2          2.5500    0.9780   -0.1520 os        1 LIG     -0.428600
      8 C4          1.6290    1.7800   -0.8930 c3        1 LIG      0.127400
      9 C5          0.8090    0.8870   -1.8260 c3        1 LIG      0.127400
     10 O3          0.0000    0.0020   -1.0490 os        1 LIG     -0.429600
     11 C6         -0.8090   -0.8810   -1.8290 c3        1 LIG      0.127400
     12 C7         -1.6290   -1.7780   -0.8990 c3        1 LIG      0.127400
     13 O4         -2.5500   -0.9770   -0.1550 os        1 LIG     -0.428600
     14 C8         -3.3690   -1.7210    0.7490 c3        1 LIG      0.127400
     15 C9         -4.3110   -0.7680    1.4860 c3        1 LIG      0.129400
     16 O5         -5.2190   -0.1780    0.5530 os        1 LIG     -0.438600
     17 C10        -6.1470    0.7340    1.1420 c3        1 LIG      0.087400
     18 C11        -7.0640    1.3010    0.0560 c3        1 LIG      0.131400
     19 O6         -7.8620    0.2490   -0.4910 oh        1 LIG     -0.599800
     20 H           8.4430   -0.6040   -1.1810 ho        1 LIG      0.412000
     21 H1          7.7020   -2.0490    0.4750 h1        1 LIG      0.053700
     22 H2          6.4710   -1.7360   -0.7250 h1        1 LIG      0.053700
     23 H3          6.7350   -0.2280    1.8730 h1        1 LIG      0.039200
     24 H4          5.6120   -1.5390    1.6040 h1        1 LIG      0.039200
     25 H5          4.8620    1.3040    2.2300 h1        1 LIG      0.045200
     26 H6          3.7400   -0.0080    1.9630 h1        1 LIG      0.045200
     27 H7          3.9450    2.4370    0.2080 h1        1 LIG      0.043200
     28 H8          2.7480    2.2240    1.4640 h1        1 LIG      0.043200
     29 H9          2.1690    2.5000   -1.4720 h1        1 LIG      0.044200
     30 H10         0.9730    2.2860   -0.2160 h1        1 LIG      0.044200
     31 H11         1.4690    0.3160   -2.4450 h1        1 LIG      0.044200
     32 H12         0.1810    1.4960   -2.4420 h1        1 LIG      0.044200
     33 H13        -0.1810   -1.4880   -2.4470 h1        1 LIG      0.044200
     34 H14        -1.4700   -0.3080   -2.4450 h1        1 LIG      0.044200
     35 H15        -0.9730   -2.2870   -0.2240 h1        1 LIG      0.044200
     36 H16        -2.1690   -2.4960   -1.4800 h1        1 LIG      0.044200
     37 H17        -2.7480   -2.2280    1.4580 h1        1 LIG      0.043200
     38 H18        -3.9440   -2.4380    0.2010 h1        1 LIG      0.043200
     39 H19        -3.7390    0.0010    1.9620 h1        1 LIG      0.045200
     40 H20        -4.8620   -1.3120    2.2240 h1        1 LIG      0.045200
     41 H21        -5.6120    1.5340    1.6110 h1        1 LIG      0.039200
     42 H22        -6.7360    0.2210    1.8740 h1        1 LIG      0.039200
     43 H23        -6.4700    1.7380   -0.7190 h1        1 LIG      0.053700
     44 H24        -7.7010    2.0480    0.4820 h1        1 LIG      0.053700
     45 H25        -7.2840   -0.4280   -0.8770 ho        1 LIG      0.412000
@<TRIPOS>BOND
     1    1    2 1   
     2    2    3 1   
     3    3    4 1   
     4    4    5 1   
     5    5    6 1   
     6    6    7 1   
     7    7    8 1   
     8    8    9 1   
     9    9   10 1   
    10   10   11 1   
    11   11   12 1   
    12   12   13 1   
    13   13   14 1   
    14   14   15 1   
    15   15   16 1   
    16   16   17 1   
    17   17   18 1   
    18   18   19 1   
    19    1   20 1   
    20    2   21 1   
    21    2   22 1   
    22    3   23 1   
    23    3   24 1   
    24    5   25 1   
    25    5   26 1   
    26    6   27 1   
    27    6   28 1   
    28    8   29 1   
    29    8   30 1   
    30    9   31 1   
    31    9   32 1   
    32   11   33 1   
    33   11   34 1   
    34   12   35 1   
    35   12   36 1   
    36   14   37 1   
    37   14   38 1   
    38   15   39 1   
    39   15   40 1   
    40   17   41 1   
    41   17   42 1   
    42   18   43 1   
    43   18   44 1   
    44   19   45 1   
@<TRIPOS>SUBSTRUCTURE
     1 LIG         1 TEMP              0 ****  ****    0 ROOT
