@<TRIPOS>MOLECULE
0FV
   36    35     1     0     0
SMALL
bcc


@<TRIPOS>ATOM
      1 C           0.2900   -1.7080   -0.6200 c3        1 LIG      0.237600
      2 O          -0.5800   -0.6330   -0.2570 os        1 LIG     -0.554200
      3 C1          1.7040   -1.1960   -0.7240 c2        1 LIG      0.114300
      4 F           2.0240   -0.2850   -1.6680 f         1 LIG     -0.244500
      5 C2          2.6240   -1.6360    0.1030 c2        1 LIG     -0.223400
      6 C3          2.2400   -2.5470    1.2410 c3        1 LIG     -0.056900
      7 C4          4.0620   -1.2300   -0.0850 c3        1 LIG     -0.017200
      8 C5          4.3690   -0.0170    0.7960 c3        1 LIG     -0.064200
      9 C6          5.8080    0.3890    0.6080 c2        1 LIG     -0.118200
     10 C7          6.0980    1.5890    0.1680 c2        1 LIG     -0.192400
     11 C8          4.9960    2.5140   -0.2790 c3        1 LIG     -0.040900
     12 C9          7.5340    2.0430    0.1100 c3        1 LIG     -0.040900
     13 P          -2.1670   -0.8190   -0.0570 p5        1 LIG      1.569800
     14 O1         -2.7510   -1.4160   -1.2790 o         1 LIG     -0.917500
     15 O2         -2.4390   -1.7900    1.1980 o         1 LIG     -0.917500
     16 O3         -2.8450    0.6150    0.2170 os        1 LIG     -0.799800
     17 P1         -4.3600    1.1580    0.1930 p5        1 LIG      1.455900
     18 O4         -4.4300    2.5860    0.9330 o         1 LIG     -0.956167
     19 O5         -4.8480    1.3210   -1.3330 o         1 LIG     -0.956167
     20 O6         -5.2400    0.1970    0.8930 o         1 LIG     -0.956167
     21 H          -0.0140   -2.1100   -1.5640 h1        1 LIG      0.040200
     22 H1          0.2420   -2.4740    0.1260 h1        1 LIG      0.040200
     23 H2          1.1850   -2.7240    1.2160 hc        1 LIG      0.054367
     24 H3          2.5020   -2.0860    2.1710 hc        1 LIG      0.054367
     25 H4          2.7600   -3.4770    1.1450 hc        1 LIG      0.054367
     26 H5          4.2300   -0.9770   -1.1110 hc        1 LIG      0.015700
     27 H6          4.7010   -2.0420    0.1920 hc        1 LIG      0.015700
     28 H7          4.2010   -0.2700    1.8220 hc        1 LIG      0.067200
     29 H8          3.7300    0.7950    0.5190 hc        1 LIG      0.067200
     30 H9          6.5650   -0.2780    0.8260 ha        1 LIG      0.106000
     31 H10         4.0510    2.0240   -0.1670 hc        1 LIG      0.026867
     32 H11         5.1430    2.7740   -1.3060 hc        1 LIG      0.026867
     33 H12         5.0110    3.4010    0.3190 hc        1 LIG      0.026867
     34 H13         7.5770    3.0410   -0.2720 hc        1 LIG      0.026867
     35 H14         8.0890    1.3910   -0.5320 hc        1 LIG      0.026867
     36 H15         7.9560    2.0190    1.0930 hc        1 LIG      0.026867
@<TRIPOS>BOND
     1    2    1 1   
     2    3    1 1   
     3    4    3 1   
     4    5    6 1   
     5    5    3 2   
     6    7    5 1   
     7    8    7 1   
     8    8    9 1   
     9   10   11 1   
    10   10    9 2   
    11   12   10 1   
    12   13    2 1   
    13   13   15 1   
    14   13   16 1   
    15   14   13 1   
    16   16   17 1   
    17   17   19 1   
    18   17   18 1   
    19   20   17 1   
    20    1   21 1   
    21    1   22 1   
    22    6   23 1   
    23    6   24 1   
    24    6   25 1   
    25    7   26 1   
    26    7   27 1   
    27    8   28 1   
    28    8   29 1   
    29    9   30 1   
    30   11   31 1   
    31   11   32 1   
    32   11   33 1   
    33   12   34 1   
    34   12   35 1   
    35   12   36 1   
@<TRIPOS>SUBSTRUCTURE
     1 LIG         1 TEMP              0 ****  ****    0 ROOT
