@<TRIPOS>MOLECULE
4M5
   56    55     1     0     0
SMALL
bcc


@<TRIPOS>ATOM
      1 O           5.5930   -0.8500   -1.0330 O.3       1 LIG     -0.601100
      2 C           5.7350   -0.6720    0.1520 C.        1 LIG      0.596100
      3 C1          6.8550    0.2020    0.6550 C.3       1 LIG     -0.196200
      4 C2          7.6460    0.7270   -0.5160 C.2       1 LIG     -0.146200
      5 C3          7.8700    2.0130   -0.6310 C.2       1 LIG     -0.194200
      6 C4          7.4790    2.9490    0.4830 C.3       1 LIG     -0.073200
      7 C5          8.6890    3.7920    0.8900 C.3       1 LIG     -0.077100
      8 C6          4.7870   -1.3180    1.1300 C.3       1 LIG     -0.201400
      9 C7          3.7480   -2.1400    0.3650 C.3       1 LIG     -0.049200
     10 C8          2.8000   -2.7860    1.3420 C.2       1 LIG     -0.148200
     11 C9          1.5070   -2.6410    1.1950 C.2       1 LIG     -0.189200
     12 C10         0.9610   -1.9650   -0.0360 C.3       1 LIG     -0.019000
     13 C11        -0.0620   -2.8590   -0.6880 C.2       1 LIG     -0.155200
     14 C12        -1.2580   -2.3980   -0.9590 C.2       1 LIG     -0.177200
     15 C13        -1.5590   -0.9330   -0.7790 C.3       1 LIG     -0.016000
     16 C14        -2.1430   -0.3800   -2.0530 C.2       1 LIG     -0.190200
     17 C15        -3.2850    0.2620   -2.0260 C.2       1 LIG     -0.144200
     18 C16        -3.9360    0.5870   -0.7060 C.3       1 LIG     -0.020000
     19 C17        -4.2620    2.0570   -0.6560 C.2       1 LIG     -0.218200
     20 C18        -5.4930    2.4470   -0.4360 C.2       1 LIG     -0.136200
     21 C19        -6.6110    1.4370   -0.4110 C.3       1 LIG     -0.053200
     22 C20        -7.2880    1.4590    0.9610 C.3       1 LIG     -0.181400
     23 C21        -8.4060    0.4480    0.9860 C.        1 LIG      0.902600
     24 O1         -9.1440    0.2920    2.0960 O.3       1 LIG     -0.858800
     25 O2         -8.6370   -0.2210    0.0070 O.3       1 LIG     -0.858800
     26 H           7.4970   -0.3710    1.2910 H         1 LIG      0.135700
     27 H1          6.4470    1.0230    1.2070 H         1 LIG      0.135700
     28 H2          8.0110    0.0740   -1.2270 H         1 LIG      0.120000
     29 H3          8.3140    2.3850   -1.4850 H         1 LIG      0.093000
     30 H4          7.1410    2.3810    1.3240 H         1 LIG      0.078200
     31 H5          6.6930    3.5930    0.1480 H         1 LIG      0.078200
     32 H6          9.4760    3.1480    1.2250 H         1 LIG      0.018700
     33 H7          8.4110    4.4570    1.6810 H         1 LIG      0.018700
     34 H8          9.0270    4.3600    0.0490 H         1 LIG      0.018700
     35 H9          5.3350   -1.9590    1.7880 H         1 LIG      0.096700
     36 H10         4.2930   -0.5600    1.7010 H         1 LIG      0.096700
     37 H11         4.2430   -2.8980   -0.2060 H         1 LIG      0.055200
     38 H12         3.2000   -1.4980   -0.2930 H         1 LIG      0.055200
     39 H13         3.1700   -3.3430    2.1280 H         1 LIG      0.109000
     40 H14         0.8620   -2.9890    1.9220 H         1 LIG      0.108000
     41 H15         1.7590   -1.7760   -0.7230 H         1 LIG      0.063700
     42 H16         0.5010   -1.0390    0.2400 H         1 LIG      0.063700
     43 H17         0.1800   -3.8350   -0.9210 H         1 LIG      0.111000
     44 H18        -1.9940   -3.0380   -1.2960 H         1 LIG      0.106000
     45 H19        -2.2610   -0.8090    0.0190 H         1 LIG      0.052700
     46 H20        -0.6560   -0.4100   -0.5440 H         1 LIG      0.052700
     47 H21        -1.6430   -0.5070   -2.9470 H         1 LIG      0.106000
     48 H22        -3.7390    0.5450   -2.9090 H         1 LIG      0.112000
     49 H23        -4.8360    0.0180   -0.6030 H         1 LIG      0.062700
     50 H24        -3.2660    0.3430    0.0920 H         1 LIG      0.062700
     51 H25        -3.5160    2.7560   -0.7950 H         1 LIG      0.103000
     52 H26        -5.6970    3.4460   -0.2800 H         1 LIG      0.111000
     53 H27        -7.3280    1.6800   -1.1670 H         1 LIG      0.060700
     54 H28        -6.2140    0.4610   -0.5970 H         1 LIG      0.060700
     55 H29        -7.6850    2.4350    1.1470 H         1 LIG      0.029200
     56 H30        -6.5710    1.2160    1.7170 H         1 LIG      0.029200
@<TRIPOS>BOND
     1    1    2 2   
     2    2    3 1   
     3    4    3 1   
     4    4    5 2   
     5    5    6 1   
     6    6    7 1   
     7    8    9 1   
     8    8    2 1   
     9    9   10 1   
    10   10   11 2   
    11   11   12 1   
    12   12   13 1   
    13   13   14 2   
    14   15   16 1   
    15   15   14 1   
    16   16   17 2   
    17   18   19 1   
    18   18   17 1   
    19   20   19 2   
    20   21   22 1   
    21   21   20 1   
    22   23   22 1   
    23   24   23 1   
    24   25   23 1   
    25    3   26 1   
    26    3   27 1   
    27    4   28 1   
    28    5   29 1   
    29    6   30 1   
    30    6   31 1   
    31    7   32 1   
    32    7   33 1   
    33    7   34 1   
    34    8   35 1   
    35    8   36 1   
    36    9   37 1   
    37    9   38 1   
    38   10   39 1   
    39   11   40 1   
    40   12   41 1   
    41   12   42 1   
    42   13   43 1   
    43   14   44 1   
    44   15   45 1   
    45   15   46 1   
    46   16   47 1   
    47   17   48 1   
    48   18   49 1   
    49   18   50 1   
    50   19   51 1   
    51   20   52 1   
    52   21   53 1   
    53   21   54 1   
    54   22   55 1   
    55   22   56 1   
@<TRIPOS>SUBSTRUCTURE
     1 LIG         1 TEMP              0 ****  ****    0 ROOT
