@<TRIPOS>MOLECULE
EWS
   49    52     1     0     0
SMALL
bcc


@<TRIPOS>ATOM
      1 C          -0.7320    2.4730    0.4560 C.3       1 LIG      0.088700
      2 C1         -2.0440    2.5110    1.2440 C.3       1 LIG     -0.115400
      3 C2         -1.0080    2.8640   -0.9990 C.3       1 LIG     -0.118400
      4 C3         -2.0610    1.9200   -1.5840 C.3       1 LIG      0.115800
      5 C4         -3.0600    1.5800    0.5780 C.3       1 LIG      0.130500
      6 C5         -4.3740    1.6150    1.3600 C.3       1 LIG     -0.059100
      7 C6         -5.3310    0.6050    0.7800 C.a       1 LIG     -0.156300
      8 C7         -5.3450   -0.6900    1.2630 C.a       1 LIG     -0.125000
      9 C8         -6.1970    0.9750   -0.2320 C.a       1 LIG     -0.125000
     10 C9         -7.0740    0.0490   -0.7640 C.a       1 LIG     -0.113000
     11 C10        -7.0850   -1.2490   -0.2850 C.a       1 LIG      0.034400
     12 C11        -6.2210   -1.6170    0.7310 C.a       1 LIG     -0.113000
     13 C12         4.3040   -0.0780    0.0060 C.a       1 LIG     -0.053000
     14 C13         5.5060   -0.7450   -0.0900 C.a       1 LIG     -0.038900
     15 C14         5.5520   -2.1270    0.0350 C.a       1 LIG     -0.080000
     16 C15         4.4010   -2.8500    0.2550 C.a       1 LIG     -0.131000
     17 C16         3.1770   -2.1950    0.3560 C.a       1 LIG     -0.051200
     18 C17         3.1320   -0.7970    0.2290 C.a       1 LIG     -0.056800
     19 C18         1.0280   -1.5850    0.5830 C.c       1 LIG     -0.049100
     20 C19         1.1530    0.9340    0.3400 C.        1 LIG      0.700300
     21 N          -0.1710    1.1200    0.5020 N.        1 LIG     -0.575900
     22 N1         -3.3000    2.0210   -0.8050 N.4       1 LIG     -0.762000
     23 N2          1.8860   -2.6330    0.5680 N.a       1 LIG     -0.163400
     24 O           1.8840    1.8890    0.1550 O.3       1 LIG     -0.593100
     25 C20         1.7150   -0.4230    0.3870 C.d       1 LIG     -0.228400
     26 Cl         -8.1860   -2.4120   -0.9530 C.l       1 LIG     -0.036400
     27 Br          7.1000    0.2260   -0.3930 B.r       1 LIG     -0.065100
     28 H          -0.0340    3.1590    0.8870 H         1 LIG      0.084700
     29 H1         -2.4270    3.5100    1.2530 H         1 LIG      0.085700
     30 H2         -1.8680    2.1900    2.2490 H         1 LIG      0.085700
     31 H3         -0.1040    2.7880   -1.5670 H         1 LIG      0.106700
     32 H4         -1.3670    3.8710   -1.0380 H         1 LIG      0.106700
     33 H5         -1.6980    0.9140   -1.5460 H         1 LIG      0.109200
     34 H6         -2.2570    2.1920   -2.6000 H         1 LIG      0.109200
     35 H7         -2.6750    0.5820    0.5710 H         1 LIG      0.109700
     36 H8         -4.8030    2.5930    1.2920 H         1 LIG      0.088700
     37 H9         -4.1850    1.3790    2.3860 H         1 LIG      0.088700
     38 H10        -4.7010   -0.9650    2.0210 H         1 LIG      0.138500
     39 H11        -6.1890    1.9430   -0.5900 H         1 LIG      0.138500
     40 H12        -7.7210    0.3260   -1.5190 H         1 LIG      0.168000
     41 H13        -6.2310   -2.5840    1.0920 H         1 LIG      0.168000
     42 H14         4.2720    0.9490   -0.0870 H         1 LIG      0.176000
     43 H15         6.4570   -2.6170   -0.0380 H         1 LIG      0.158000
     44 H16         4.4460   -3.8770    0.3450 H         1 LIG      0.149000
     45 H17         0.0080   -1.6550    0.7220 H         1 LIG      0.161000
     46 H18        -0.7620    0.3470    0.6510 H         1 LIG      0.291500
     47 H19        -3.6190    2.9900   -0.8000 H         1 LIG      0.449800
     48 H20        -4.0120    1.4260   -1.2280 H         1 LIG      0.449800
     49 H21         1.6250   -3.5740    0.6910 H         1 LIG      0.314700
@<TRIPOS>BOND
     1    1   21 1   
     2    2    1 1   
     3    3    1 1   
     4    4    3 1   
     5    5   22 1   
     6    5    2 1   
     7    6    5 1   
     8    7    6 1   
     9    8    7 ar  
    10    9    7 ar  
    11   10    9 ar  
    12   11   12 ar  
    13   11   10 ar  
    14   12    8 ar  
    15   13   18 ar  
    16   14   13 ar  
    17   14   15 ar  
    18   15   16 ar  
    19   16   17 ar  
    20   17   23 1   
    21   18   25 1   
    22   18   17 ar  
    23   19   23 1   
    24   20   24 2   
    25   20   25 1   
    26   21   20 1   
    27   22    4 1   
    28   25   19 2   
    29   26   11 1   
    30   27   14 1   
    31    1   28 1   
    32    2   29 1   
    33    2   30 1   
    34    3   31 1   
    35    3   32 1   
    36    4   33 1   
    37    4   34 1   
    38    5   35 1   
    39    6   36 1   
    40    6   37 1   
    41    8   38 1   
    42    9   39 1   
    43   10   40 1   
    44   12   41 1   
    45   13   42 1   
    46   15   43 1   
    47   16   44 1   
    48   19   45 1   
    49   21   46 1   
    50   22   47 1   
    51   22   48 1   
    52   23   49 1   
@<TRIPOS>SUBSTRUCTURE
     1 LIG         1 TEMP              0 ****  ****    0 ROOT
