@<TRIPOS>MOLECULE
BOG
   48    48     1     0     0
SMALL
bcc


@<TRIPOS>ATOM
      1 C          -0.6430   -0.1950   -1.7660 C.3       1 LIG      0.310900
      2 O          -1.2390    0.2290   -0.5380 O.2       1 LIG     -0.397600
      3 C1         -1.5340    0.2260   -2.9360 C.3       1 LIG      0.092100
      4 O1         -2.8310   -0.3520   -2.7830 O.h       1 LIG     -0.559800
      5 C2         -0.9040   -0.2640   -4.2450 C.3       1 LIG      0.072100
      6 O2         -1.6420    0.2460   -5.3570 O.h       1 LIG     -0.570800
      7 C3          0.5410    0.2390   -4.3120 C.3       1 LIG      0.084100
      8 O3          1.1950   -0.3270   -5.4490 O.h       1 LIG     -0.574800
      9 C4          1.2750   -0.1820   -3.0370 C.3       1 LIG      0.076100
     10 O4          0.6440    0.4020   -1.9000 O.2       1 LIG     -0.447600
     11 C5          2.7290    0.2870   -3.1100 C.3       1 LIG      0.140400
     12 O5          3.4190   -0.1110   -1.9230 O.h       1 LIG     -0.595800
     13 C6         -0.3680   -0.1940    0.5110 C.3       1 LIG      0.134400
     14 C7         -0.9510    0.2310    1.8600 C.3       1 LIG     -0.084400
     15 C8         -0.0180   -0.2210    2.9850 C.3       1 LIG     -0.078400
     16 C9         -0.6010    0.2040    4.3340 C.3       1 LIG     -0.078400
     17 C10         0.3310   -0.2490    5.4590 C.3       1 LIG     -0.079400
     18 C11        -0.2510    0.1760    6.8080 C.3       1 LIG     -0.079400
     19 C12         0.6810   -0.2760    7.9320 C.3       1 LIG     -0.080400
     20 C13         0.0980    0.1490    9.2810 C.3       1 LIG     -0.093100
     21 H          -0.5390   -1.2600   -1.7660 H         1 LIG      0.037700
     22 H1         -1.6250    1.2920   -2.9550 H         1 LIG      0.108700
     23 H2         -2.7540   -1.3190   -2.7650 H         1 LIG      0.400000
     24 H3         -0.9210   -1.3330   -4.2790 H         1 LIG      0.074700
     25 H4         -1.6320    1.2160   -5.3340 H         1 LIG      0.412000
     26 H5          0.5470    1.3060   -4.3990 H         1 LIG      0.092700
     27 H6          1.1920   -1.2940   -5.3750 H         1 LIG      0.407000
     28 H7          1.2450   -1.2480   -2.9470 H         1 LIG      0.050700
     29 H8          2.7560    1.3530   -3.1970 H         1 LIG      0.065700
     30 H9          3.2030   -0.1530   -3.9620 H         1 LIG      0.065700
     31 H10         2.9900    0.2880   -1.1500 H         1 LIG      0.410000
     32 H11         0.5940    0.2570    0.3800 H         1 LIG      0.034200
     33 H12        -0.2690   -1.2590    0.4850 H         1 LIG      0.034200
     34 H13        -1.9120   -0.2200    1.9910 H         1 LIG      0.057700
     35 H14        -1.0500    1.2960    1.8860 H         1 LIG      0.057700
     36 H15         0.9430    0.2300    2.8540 H         1 LIG      0.040200
     37 H16         0.0810   -1.2860    2.9590 H         1 LIG      0.040200
     38 H17        -1.5630   -0.2470    4.4650 H         1 LIG      0.042700
     39 H18        -0.6990    1.2690    4.3600 H         1 LIG      0.042700
     40 H19         1.2930    0.2010    5.3280 H         1 LIG      0.039200
     41 H20         0.4280   -1.3140    5.4330 H         1 LIG      0.039200
     42 H21        -1.2120   -0.2750    6.9390 H         1 LIG      0.040200
     43 H22        -0.3490    1.2410    6.8340 H         1 LIG      0.040200
     44 H23         1.6420    0.1750    7.8010 H         1 LIG      0.038700
     45 H24         0.7800   -1.3410    7.9060 H         1 LIG      0.038700
     46 H25        -0.0010    1.2140    9.3070 H         1 LIG      0.032700
     47 H26         0.7510   -0.1680   10.0670 H         1 LIG      0.032700
     48 H27        -0.8640   -0.3020    9.4120 H         1 LIG      0.032700
@<TRIPOS>BOND
     1    1    2 1   
     2    1    3 1   
     3    1   10 1   
     4    2   13 1   
     5    3    4 1   
     6    3    5 1   
     7    5    6 1   
     8    5    7 1   
     9    7    8 1   
    10    7    9 1   
    11    9   10 1   
    12    9   11 1   
    13   11   12 1   
    14   13   14 1   
    15   14   15 1   
    16   15   16 1   
    17   16   17 1   
    18   17   18 1   
    19   18   19 1   
    20   19   20 1   
    21    1   21 1   
    22    3   22 1   
    23    4   23 1   
    24    5   24 1   
    25    6   25 1   
    26    7   26 1   
    27    8   27 1   
    28    9   28 1   
    29   11   29 1   
    30   11   30 1   
    31   12   31 1   
    32   13   32 1   
    33   13   33 1   
    34   14   34 1   
    35   14   35 1   
    36   15   36 1   
    37   15   37 1   
    38   16   38 1   
    39   16   39 1   
    40   17   40 1   
    41   17   41 1   
    42   18   42 1   
    43   18   43 1   
    44   19   44 1   
    45   19   45 1   
    46   20   46 1   
    47   20   47 1   
    48   20   48 1   
@<TRIPOS>SUBSTRUCTURE
     1 LIG         1 TEMP              0 ****  ****    0 ROOT
