@<TRIPOS>MOLECULE
444
   43    44     1     0     0
SMALL
bcc


@<TRIPOS>ATOM
      1 O           0.6630   -1.3950   -4.1690 o         1 LIG     -0.636800
      2 S          -0.1560   -1.0810   -3.0520 sy        1 LIG      1.512200
      3 O1         -0.7200   -2.0270   -2.1540 o         1 LIG     -0.636800
      4 C          -1.5160   -0.1660   -3.6990 ca        1 LIG     -0.401500
      5 C1         -2.7070   -0.1110   -3.0000 ca        1 LIG     -0.009500
      6 C2         -3.7730    0.6100   -3.5060 ca        1 LIG     -0.155000
      7 C3         -3.6490    1.2690   -4.7150 ca        1 LIG     -0.055000
      8 C4         -2.4600    1.2090   -5.4160 ca        1 LIG     -0.155000
      9 C5         -1.3930    0.4910   -4.9090 ca        1 LIG     -0.009500
     10 N           0.7350   -0.0470   -2.1160 nh        1 LIG     -0.664900
     11 C6          1.8320    0.7190   -2.7110 c3        1 LIG      0.188800
     12 C7          3.1440    0.3610   -2.0100 c3        1 LIG      0.601900
     13 F           4.1910    1.0920   -2.5790 f         1 LIG     -0.233300
     14 F1          3.0440    0.6690   -0.6490 f         1 LIG     -0.233300
     15 F2          3.3950   -1.0060   -2.1610 f         1 LIG     -0.233300
     16 C8          0.4410    0.0940   -0.7570 ca        1 LIG      0.151600
     17 C9          0.4990   -1.0070    0.0850 ca        1 LIG     -0.137000
     18 C10         0.2130   -0.8630    1.4290 ca        1 LIG     -0.080000
     19 C11         0.0890    1.3370   -0.2470 ca        1 LIG     -0.137000
     20 C12        -0.2010    1.4730    1.0950 ca        1 LIG     -0.080000
     21 C13        -0.1410    0.3740    1.9320 ca        1 LIG     -0.160300
     22 C14        -0.4590    0.5270    3.3970 c3        1 LIG      0.149100
     23 C15         0.7530    0.1020    4.2290 c3        1 LIG      0.628400
     24 F3          0.5040    0.3610    5.5810 f         1 LIG     -0.217633
     25 F4          0.9840   -1.2650    4.0510 f         1 LIG     -0.217633
     26 F5          1.8780    0.8230    3.8150 f         1 LIG     -0.217633
     27 O2         -0.7730    1.8920    3.6770 oh        1 LIG     -0.554800
     28 C16        -1.6560   -0.3550    3.7540 c3        1 LIG      0.628400
     29 F6         -1.3480   -1.6920    3.4810 f         1 LIG     -0.217633
     30 F7         -1.9510   -0.2130    5.1150 f         1 LIG     -0.217633
     31 F8         -2.7650    0.0320    2.9940 f         1 LIG     -0.217633
     32 H          -2.8010   -0.6080   -2.1000 ha        1 LIG      0.154000
     33 H1         -4.6610    0.6560   -2.9820 ha        1 LIG      0.147000
     34 H2         -4.4450    1.8060   -5.0940 ha        1 LIG      0.142000
     35 H3         -2.3680    1.7000   -6.3190 ha        1 LIG      0.147000
     36 H4         -0.5050    0.4460   -5.4330 ha        1 LIG      0.154000
     37 H5          1.6400    1.7650   -2.5950 h1        1 LIG      0.098700
     38 H6          1.9080    0.4830   -3.7520 h1        1 LIG      0.098700
     39 H7          0.7550   -1.9330   -0.2920 ha        1 LIG      0.163000
     40 H8          0.2640   -1.6800    2.0580 ha        1 LIG      0.157000
     41 H9          0.0440    2.1580   -0.8710 ha        1 LIG      0.163000
     42 H10        -0.4630    2.3960    1.4750 ha        1 LIG      0.157000
     43 H11        -0.0140    2.4510    3.4500 ho        1 LIG      0.438000
@<TRIPOS>BOND
     1    1    2 2   
     2    2    3 2   
     3    2    4 1   
     4    2   10 1   
     5    4    5 ar  
     6    4    9 ar  
     7    5    6 ar  
     8    6    7 ar  
     9    7    8 ar  
    10    8    9 ar  
    11   10   11 1   
    12   10   16 1   
    13   11   12 1   
    14   12   13 1   
    15   12   14 1   
    16   12   15 1   
    17   16   17 ar  
    18   16   19 ar  
    19   17   18 ar  
    20   18   21 ar  
    21   19   20 ar  
    22   20   21 ar  
    23   21   22 1   
    24   22   23 1   
    25   22   27 1   
    26   22   28 1   
    27   23   24 1   
    28   23   25 1   
    29   23   26 1   
    30   28   29 1   
    31   28   30 1   
    32   28   31 1   
    33    5   32 1   
    34    6   33 1   
    35    7   34 1   
    36    8   35 1   
    37    9   36 1   
    38   11   37 1   
    39   11   38 1   
    40   17   39 1   
    41   18   40 1   
    42   19   41 1   
    43   20   42 1   
    44   27   43 1   
@<TRIPOS>SUBSTRUCTURE
     1 LIG         1 TEMP              0 ****  ****    0 ROOT
