@<TRIPOS>MOLECULE
BB4
   24    25     1     0     0
SMALL
bcc


@<TRIPOS>ATOM
      1 Br          3.1310    1.2360    0.0670 br        1 LIG     -0.087100
      2 N          -4.0310    1.7760    0.3280 n         1 LIG     -0.355400
      3 O          -2.8960    0.4990   -1.0860 o         1 LIG     -0.567100
      4 N1         -1.0320   -3.1080   -0.1620 na        1 LIG     -0.184400
      5 C          -2.1090   -2.4240    0.3310 cc        1 LIG     -0.075100
      6 C1         -1.7570   -1.1620    0.6230 cd        1 LIG     -0.164400
      7 C2         -0.3360   -1.0270    0.2900 ca        1 LIG     -0.100800
      8 C3          0.5820    0.0220    0.3680 ca        1 LIG     -0.066000
      9 C4          1.8830   -0.1810   -0.0360 ca        1 LIG     -0.046900
     10 C5          2.2830   -1.4200   -0.5200 ca        1 LIG     -0.088000
     11 C6          1.3880   -2.4640   -0.6030 ca        1 LIG     -0.139000
     12 C7          0.0700   -2.2810   -0.2000 ca        1 LIG     -0.036200
     13 C8         -2.6520   -0.0890    1.1860 c3        1 LIG     -0.081200
     14 C9         -3.2010    0.7490    0.0610 c         1 LIG      0.594100
     15 O1         -4.5480    2.5640   -0.7290 oh        1 LIG     -0.436100
     16 H          -4.2780    1.9790    1.2590 hn        1 LIG      0.309500
     17 H1         -1.0420   -4.0500   -0.4470 hn        1 LIG      0.305700
     18 H2         -3.0530   -2.8200    0.4600 h4        1 LIG      0.176000
     19 H3          0.2870    0.9440    0.7260 ha        1 LIG      0.154000
     20 H4          3.2600   -1.5600   -0.8200 ha        1 LIG      0.148000
     21 H5          1.6950   -3.3810   -0.9640 ha        1 LIG      0.141000
     22 H6         -2.0890    0.5320    1.8510 hc        1 LIG      0.084700
     23 H7         -3.4610   -0.5430    1.7200 hc        1 LIG      0.084700
     24 H8         -4.2080    2.2330   -1.5750 ho        1 LIG      0.432000
@<TRIPOS>BOND
     1    1    9 1   
     2    2   14 1   
     3    2   15 1   
     4    3   14 2   
     5    4    5 1   
     6    4   12 1   
     7    5    6 2   
     8    6    7 1   
     9    6   13 1   
    10    7    8 ar  
    11    7   12 ar  
    12    8    9 ar  
    13    9   10 ar  
    14   10   11 ar  
    15   11   12 ar  
    16   13   14 1   
    17    2   16 1   
    18    4   17 1   
    19    5   18 1   
    20    8   19 1   
    21   10   20 1   
    22   11   21 1   
    23   13   22 1   
    24   13   23 1   
    25   15   24 1   
@<TRIPOS>SUBSTRUCTURE
     1 LIG         1 TEMP              0 ****  ****    0 ROOT
