@<TRIPOS>MOLECULE
2ZV
   18    18     1     0     0
SMALL
bcc


@<TRIPOS>ATOM
      1 C           0.2980    2.5220    0.0060 C.3       1 LIG     -0.076800
      2 C1         -0.4790    1.2310    0.0030 C.a       1 LIG      0.077700
      3 C2         -1.8680    1.2380   -0.0010 C.a       1 LIG     -0.333300
      4 C3         -2.5500    0.0380   -0.0040 C.a       1 LIG      0.493200
      5 N          -1.9000   -1.1100   -0.0020 N.b       1 LIG     -0.751000
      6 C4         -0.5770   -1.1590    0.0020 C.a       1 LIG      0.743200
      7 N1          0.0660   -2.3910    0.0040 N.h       1 LIG     -0.945500
      8 C5          0.1750    0.0120   -0.0010 C.a       1 LIG     -0.387500
      9 N2          1.5280   -0.0410   -0.0020 N.o       1 LIG      0.331200
     10 O           2.1380   -0.0680    1.0520 O.3       1 LIG     -0.227000
     11 O1          2.1360   -0.0630   -1.0580 O.3       1 LIG     -0.227000
     12 H           1.3460    2.3070    0.0090 H         1 LIG      0.068700
     13 H1          0.0470    3.0870    0.8790 H         1 LIG      0.068700
     14 H2          0.0520    3.0880   -0.8680 H         1 LIG      0.068700
     15 H3         -2.3850    2.1310   -0.0020 H         1 LIG      0.156000
     16 H4         -3.5820    0.0390   -0.0080 H         1 LIG      0.031100
     17 H5         -0.4620   -3.2220    0.0060 H         1 LIG      0.454300
     18 H6          1.0500   -2.4330    0.0030 H         1 LIG      0.454300
@<TRIPOS>BOND
     1    2    1 1   
     2    2    8 ar  
     3    3    2 ar  
     4    4    3 ar  
     5    4    5 ar  
     6    5    6 ar  
     7    6    8 ar  
     8    6    7 1   
     9    8    9 1   
    10    9   10 1   
    11    9   11 1   
    12    1   12 1   
    13    1   13 1   
    14    1   14 1   
    15    3   15 1   
    16    4   16 1   
    17    7   17 1   
    18    7   18 1   
@<TRIPOS>SUBSTRUCTURE
     1 LIG         1 TEMP              0 ****  ****    0 ROOT
