@<TRIPOS>MOLECULE
B55
   17    18     1     0     0
SMALL
bcc


@<TRIPOS>ATOM
      1 O          -1.2660   -2.5530   -0.0010 o         1 LIG     -0.595500
      2 C          -1.2770   -1.3340    0.0010 c         1 LIG      0.650000
      3 C1         -0.0700   -0.6000    0.0080 cc        1 LIG      0.189800
      4 N           1.2450   -0.9450    0.0130 nc        1 LIG     -0.597000
      5 N1         -2.4430   -0.6520   -0.0080 n         1 LIG     -0.509400
      6 C2         -2.4440    0.7110   -0.0060 cc        1 LIG      0.683800
      7 N2         -3.6440    1.3780   -0.0160 nh        1 LIG     -0.892800
      8 N3         -1.3270    1.4050    0.0060 nd        1 LIG     -0.672100
      9 C3         -0.1350    0.7970    0.0110 cd        1 LIG      0.114800
     10 N4          1.1630    1.2430    0.0180 na        1 LIG     -0.290900
     11 C4          1.9760    0.1410    0.0190 cd        1 LIG      0.488800
     12 S           3.7380    0.1790    0.0260 sh        1 LIG     -0.315100
     13 H          -3.2970   -1.1420   -0.0160 hn        1 LIG      0.335500
     14 H1         -4.4880    0.8720   -0.0250 hn        1 LIG      0.422300
     15 H2         -3.6600    2.3620   -0.0140 hn        1 LIG      0.422300
     16 H3          1.4560    2.1830    0.0220 hn        1 LIG      0.324700
     17 H4          4.2190   -1.0930    0.0250 hs        1 LIG      0.238800
@<TRIPOS>BOND
     1    1    2 2   
     2    2    3 1   
     3    2    5 1   
     4    3    4 ar  
     5    3    9 ar  
     6    4   11 ar  
     7    5    6 1   
     8    6    7 1   
     9    6    8 2   
    10    8    9 1   
    11    9   10 ar  
    12   10   11 ar  
    13   11   12 1   
    14    5   13 1   
    15    7   14 1   
    16    7   15 1   
    17   10   16 1   
    18   12   17 1   
@<TRIPOS>SUBSTRUCTURE
     1 LIG         1 TEMP              0 ****  ****    0 ROOT
