@<TRIPOS>MOLECULE
ANC
   26    28     1     0     0
SMALL
bcc


@<TRIPOS>ATOM
      1 C          -1.0700   -0.0000    0.8890 C.a       1 LIG     -0.007000
      2 C1         -1.8900   -0.0000    2.0370 C.a       1 LIG     -0.164000
      3 C2          0.3850    0.0050    1.0620 C.a       1 LIG     -0.050000
      4 C3         -1.3220   -0.0000    3.2710 C.a       1 LIG     -0.084000
      5 C4          0.9130   -0.0000    2.3770 C.a       1 LIG      0.151600
      6 C5          0.0590    0.0000    3.4430 C.a       1 LIG     -0.219000
      7 C6          0.9200   -0.0000   -3.7080 C.a       1 LIG     -0.130000
      8 C7         -0.4640   -0.0000   -3.8740 C.a       1 LIG     -0.124000
      9 C8          1.4910   -0.0000   -2.4760 C.a       1 LIG     -0.115000
     10 C9         -1.3110   -0.0000   -2.8120 C.a       1 LIG     -0.119000
     11 C10         0.6710    0.0000   -1.3280 C.a       1 LIG     -0.044000
     12 C11        -0.7850    0.0000   -1.5020 C.a       1 LIG     -0.026000
     13 C12        -1.6240   -0.0000   -0.3900 C.a       1 LIG     -0.117000
     14 C13         1.2230   -0.0000   -0.0480 C.a       1 LIG     -0.100000
     15 N           2.2910   -0.0000    2.5810 N.h       1 LIG     -0.817200
     16 H          -2.9170    0.0000    1.9400 H         1 LIG      0.132000
     17 H1         -1.9310    0.0000    4.1040 H         1 LIG      0.130000
     18 H2          0.4470    0.0000    4.3990 H         1 LIG      0.131000
     19 H3          1.5260    0.0000   -4.5430 H         1 LIG      0.132000
     20 H4         -0.8560    0.0000   -4.8290 H         1 LIG      0.132000
     21 H5          2.5180    0.0000   -2.3800 H         1 LIG      0.130000
     22 H6         -2.3320    0.0000   -2.9620 H         1 LIG      0.133000
     23 H7         -2.6490    0.0000   -0.5120 H         1 LIG      0.135000
     24 H8          2.2480   -0.0040    0.0750 H         1 LIG      0.130000
     25 H9          2.9030    0.0000    1.8100 H         1 LIG      0.389800
     26 H10         2.6530    0.0000    3.4970 H         1 LIG      0.389800
@<TRIPOS>BOND
     1    1    2 ar  
     2    1    3 ar  
     3    1   13 ar  
     4    2    4 ar  
     5    3    5 ar  
     6    3   14 ar  
     7    4    6 ar  
     8    5    6 ar  
     9    5   15 1   
    10    7    8 ar  
    11    7    9 ar  
    12    8   10 ar  
    13    9   11 ar  
    14   10   12 ar  
    15   11   12 ar  
    16   11   14 ar  
    17   12   13 ar  
    18    2   16 1   
    19    4   17 1   
    20    6   18 1   
    21    7   19 1   
    22    8   20 1   
    23    9   21 1   
    24   10   22 1   
    25   13   23 1   
    26   14   24 1   
    27   15   25 1   
    28   15   26 1   
@<TRIPOS>SUBSTRUCTURE
     1 LIG         1 TEMP              0 ****  ****    0 ROOT
