@<TRIPOS>MOLECULE
ZI6
   39    41     1     0     0
SMALL
bcc


@<TRIPOS>ATOM
      1 F           7.1110   -2.0410    1.3600 f         1 LIG     -0.237967
      2 C           6.6610   -2.1310    0.0380 c3        1 LIG      0.686200
      3 F1          7.5880   -1.5200   -0.8120 f         1 LIG     -0.237967
      4 F2          6.5190   -3.4770   -0.3160 f         1 LIG     -0.237967
      5 C1          5.3300   -1.4360   -0.0870 ca        1 LIG     -0.159300
      6 C2          5.2820   -0.0900   -0.4050 ca        1 LIG     -0.088000
      7 C3          4.0660    0.5510   -0.5220 ca        1 LIG     -0.102000
      8 C4          4.1600   -2.1470    0.1100 ca        1 LIG     -0.088000
      9 C5          2.9380   -1.5170   -0.0100 ca        1 LIG     -0.102000
     10 C6          2.8840   -0.1590   -0.3180 ca        1 LIG     -0.106500
     11 C7          1.5730    0.5240   -0.4480 cc        1 LIG      0.343500
     12 N           0.4310   -0.0140   -0.9450 nc        1 LIG     -0.627000
     13 C8          1.2920    1.8010   -0.0860 cd        1 LIG      0.182600
     14 Br          2.4950    3.0450    0.6760 br        1 LIG     -0.053200
     15 O          -0.0060    2.0140   -0.3730 os        1 LIG     -0.361800
     16 C9         -0.5070    0.8860   -0.8970 cd        1 LIG      0.457700
     17 C10        -1.9280    0.6930   -1.3580 c3        1 LIG      0.111100
     18 O1         -2.7200    0.2110   -0.2710 os        1 LIG     -0.300900
     19 C11        -4.0380   -0.0170   -0.5210 ca        1 LIG      0.019100
     20 C12        -4.8630   -0.4860    0.4900 ca        1 LIG      0.225900
     21 F3         -4.3610   -0.7160    1.7230 f         1 LIG     -0.082900
     22 C13        -4.5550    0.2240   -1.7850 ca        1 LIG     -0.084000
     23 C14        -5.8940   -0.0040   -2.0470 ca        1 LIG     -0.178000
     24 C15        -6.7270   -0.4760   -1.0500 ca        1 LIG      0.171900
     25 F4         -8.0340   -0.6980   -1.3100 f         1 LIG     -0.130900
     26 C16        -6.2170   -0.7190    0.2290 ca        1 LIG     -0.220600
     27 C17        -7.1030   -1.2170    1.2990 c         1 LIG      0.682700
     28 O2         -7.6920   -0.4310    2.0160 o         1 LIG     -0.598100
     29 N1         -7.2600   -2.5430    1.4810 n         1 LIG     -0.656000
     30 H           6.1580    0.4350   -0.5550 ha        1 LIG      0.156500
     31 H1          4.0320    1.5540   -0.7600 ha        1 LIG      0.164000
     32 H2          4.2010   -3.1510    0.3470 ha        1 LIG      0.156500
     33 H3          2.0660   -2.0510    0.1280 ha        1 LIG      0.164000
     34 H4         -1.9500   -0.0170   -2.1580 h1        1 LIG      0.088700
     35 H5         -2.3220    1.6270   -1.7000 h1        1 LIG      0.088700
     36 H6         -3.9380    0.5750   -2.5340 ha        1 LIG      0.155000
     37 H7         -6.2720    0.1790   -2.9900 ha        1 LIG      0.162000
     38 H8         -6.7830   -3.1790    0.9010 hn        1 LIG      0.318000
     39 H9         -7.8510   -2.8750    2.1940 hn        1 LIG      0.318000
@<TRIPOS>BOND
     1    2    1 1   
     2    3    2 1   
     3    4    2 1   
     4    5    6 ar  
     5    5    2 1   
     6    7    6 ar  
     7    8    5 ar  
     8    9   10 ar  
     9    9    8 ar  
    10   10    7 ar  
    11   11   10 1   
    12   12   11 ar  
    13   13   11 ar  
    14   14   13 1   
    15   15   16 ar  
    16   15   13 ar  
    17   16   12 ar  
    18   17   16 1   
    19   17   18 1   
    20   18   19 1   
    21   19   20 ar  
    22   20   26 ar  
    23   20   21 1   
    24   22   23 ar  
    25   22   19 ar  
    26   23   24 ar  
    27   24   25 1   
    28   24   26 ar  
    29   26   27 1   
    30   27   28 2   
    31   29   27 1   
    32    6   30 1   
    33    7   31 1   
    34    8   32 1   
    35    9   33 1   
    36   17   34 1   
    37   17   35 1   
    38   22   36 1   
    39   23   37 1   
    40   29   38 1   
    41   29   39 1   
@<TRIPOS>SUBSTRUCTURE
     1 LIG         1 TEMP              0 ****  ****    0 ROOT
