@<TRIPOS>MOLECULE
B3L
   25    24     1     0     0
SMALL
bcc


@<TRIPOS>ATOM
      1 O           2.3830   -1.1470   -0.0220 O.3       1 LIG     -0.568800
      2 C           2.4480    0.0490   -0.1760 C.        1 LIG      0.883600
      3 C1          1.1930    0.8820   -0.1470 C.3       1 LIG     -0.174400
      4 C2         -0.0160   -0.0250    0.0930 C.3       1 LIG      0.163500
      5 N           0.0820   -0.6280    1.4290 N.4       1 LIG     -1.128600
      6 C3         -1.3000    0.8010   -0.0010 C.3       1 LIG     -0.112400
      7 C4         -2.5120   -0.1270    0.1020 C.3       1 LIG     -0.068700
      8 C5         -3.7920    0.7090    0.1510 C.3       1 LIG     -0.093600
      9 C6         -2.5520   -1.0510   -1.1170 C.3       1 LIG     -0.093600
     10 O1          3.6390    0.6370   -0.3690 O.3       1 LIG     -0.568800
     11 H           1.0790    1.3880   -1.0830 H         1 LIG      0.078700
     12 H1          1.2610    1.6020    0.6420 H         1 LIG      0.078700
     13 H2         -0.0350   -0.7980   -0.6470 H         1 LIG      0.073700
     14 H3          0.1000    0.1090    2.1340 H         1 LIG      0.388133
     15 H4          0.9380   -1.1790    1.4910 H         1 LIG      0.388133
     16 H5         -0.7240   -1.2330    1.5890 H         1 LIG      0.388133
     17 H6         -1.3240    1.3170   -0.9380 H         1 LIG      0.050200
     18 H7         -1.3260    1.5120    0.7980 H         1 LIG      0.050200
     19 H8         -2.4360   -0.7150    0.9930 H         1 LIG      0.038700
     20 H9         -3.8680    1.2970   -0.7400 H         1 LIG      0.037533
     21 H10        -3.7640    1.3550    1.0040 H         1 LIG      0.037533
     22 H11        -4.6390    0.0600    0.2230 H         1 LIG      0.037533
     23 H12        -2.6280   -0.4630   -2.0080 H         1 LIG      0.037533
     24 H13        -3.4000   -1.7000   -1.0450 H         1 LIG      0.037533
     25 H14        -1.6570   -1.6360   -1.1510 H         1 LIG      0.037533
@<TRIPOS>BOND
     1    2    1 1   
     2    2   10 1   
     3    3    2 1   
     4    4    3 1   
     5    5    4 1   
     6    6    4 1   
     7    7    6 1   
     8    7    9 1   
     9    8    7 1   
    10    3   11 1   
    11    3   12 1   
    12    4   13 1   
    13    5   14 1   
    14    5   15 1   
    15    5   16 1   
    16    6   17 1   
    17    6   18 1   
    18    7   19 1   
    19    8   20 1   
    20    8   21 1   
    21    8   22 1   
    22    9   23 1   
    23    9   24 1   
    24    9   25 1   
@<TRIPOS>SUBSTRUCTURE
     1 LIG         1 TEMP              0 ****  ****    0 ROOT
