@<TRIPOS>MOLECULE
243
   52    51     1     0     0
SMALL
bcc


@<TRIPOS>ATOM
      1 O          -9.1150   -2.4260   -0.0860 o         1 LIG     -0.853300
      2 C          -8.2260   -1.4660    0.2150 c         1 LIG      0.907600
      3 O1         -8.5210   -0.5920    0.9950 o         1 LIG     -0.853300
      4 C1         -6.8590   -1.4800   -0.4200 c3        1 LIG     -0.194400
      5 C2         -6.0480   -0.2870    0.0890 c3        1 LIG     -0.065400
      6 C3         -4.6610   -0.3010   -0.5560 c3        1 LIG     -0.078400
      7 C4         -3.8490    0.8920   -0.0470 c3        1 LIG     -0.078400
      8 C5         -2.4620    0.8780   -0.6920 c3        1 LIG     -0.079400
      9 C6         -1.6510    2.0720   -0.1830 c3        1 LIG     -0.078400
     10 C7         -0.2640    2.0570   -0.8270 c3        1 LIG     -0.060200
     11 C8          0.5350    3.2330   -0.3260 c2        1 LIG     -0.125200
     12 C9          1.7340    3.0400    0.2140 ce        1 LIG     -0.172000
     13 C10         2.3400    1.6990    0.1990 ce        1 LIG     -0.106000
     14 C11         3.4890    1.4830    0.8310 c2        1 LIG     -0.223200
     15 C12         4.1100    0.1100    0.8150 c3        1 LIG      0.173300
     16 O2          3.3450   -0.7500   -0.0320 oh        1 LIG     -0.594800
     17 C13         5.5430    0.2040    0.2860 c3        1 LIG     -0.106400
     18 C14         6.2140   -1.1670    0.3860 c3        1 LIG     -0.080400
     19 C15         7.6470   -1.0730   -0.1430 c3        1 LIG     -0.078400
     20 C16         8.3190   -2.4440   -0.0420 c3        1 LIG     -0.080400
     21 C17         9.7520   -2.3490   -0.5720 c3        1 LIG     -0.092100
     22 H          -6.9590   -1.4160   -1.4830 hc        1 LIG      0.018700
     23 H1         -6.3560   -2.3890   -0.1630 hc        1 LIG      0.018700
     24 H2         -5.9480   -0.3520    1.1520 hc        1 LIG      0.044200
     25 H3         -6.5510    0.6220   -0.1670 hc        1 LIG      0.044200
     26 H4         -4.7620   -0.2360   -1.6190 hc        1 LIG      0.026700
     27 H5         -4.1580   -1.2100   -0.3000 hc        1 LIG      0.026700
     28 H6         -3.7480    0.8270    1.0160 hc        1 LIG      0.036700
     29 H7         -4.3520    1.8010   -0.3030 hc        1 LIG      0.036700
     30 H8         -2.5620    0.9420   -1.7550 hc        1 LIG      0.035700
     31 H9         -1.9580   -0.0310   -0.4360 hc        1 LIG      0.035700
     32 H10        -1.5510    2.0080    0.8800 hc        1 LIG      0.040200
     33 H11        -2.1540    2.9810   -0.4400 hc        1 LIG      0.040200
     34 H12        -0.3640    2.1210   -1.8900 hc        1 LIG      0.052700
     35 H13         0.2390    1.1480   -0.5700 hc        1 LIG      0.052700
     36 H14         0.1510    4.1880   -0.4020 ha        1 LIG      0.123000
     37 H15         2.2400    3.8300    0.6440 ha        1 LIG      0.117000
     38 H16         1.8730    0.9270   -0.3020 ha        1 LIG      0.134000
     39 H17         3.9560    2.2550    1.3320 ha        1 LIG      0.123000
     40 H18         4.1220   -0.2870    1.8080 h1        1 LIG      0.078700
     41 H19         3.3340   -0.3900   -0.9330 ho        1 LIG      0.400000
     42 H20         6.0930    0.9130    0.8690 hc        1 LIG      0.045200
     43 H21         5.5260    0.5190   -0.7360 hc        1 LIG      0.045200
     44 H22         5.6650   -1.8770   -0.1970 hc        1 LIG      0.048200
     45 H23         6.2310   -1.4820    1.4080 hc        1 LIG      0.048200
     46 H24         8.1960   -0.3630    0.4390 hc        1 LIG      0.037700
     47 H25         7.6300   -0.7590   -1.1660 hc        1 LIG      0.037700
     48 H26         7.7700   -3.1540   -0.6240 hc        1 LIG      0.039700
     49 H27         8.3370   -2.7590    0.9810 hc        1 LIG      0.039700
     50 H28         9.7340   -2.0340   -1.5950 hc        1 LIG      0.031367
     51 H29        10.2230   -3.3080   -0.5020 hc        1 LIG      0.031367
     52 H30        10.3010   -1.6390    0.0100 hc        1 LIG      0.031367
@<TRIPOS>BOND
     1    2    1 1   
     2    2    3 1   
     3    4    2 1   
     4    4    5 1   
     5    5    6 1   
     6    7    6 1   
     7    7    8 1   
     8    9    8 1   
     9    9   10 1   
    10   10   11 1   
    11   11   12 2   
    12   12   13 1   
    13   13   14 2   
    14   14   15 1   
    15   15   16 1   
    16   17   15 1   
    17   18   17 1   
    18   19   18 1   
    19   20   19 1   
    20   21   20 1   
    21    4   22 1   
    22    4   23 1   
    23    5   24 1   
    24    5   25 1   
    25    6   26 1   
    26    6   27 1   
    27    7   28 1   
    28    7   29 1   
    29    8   30 1   
    30    8   31 1   
    31    9   32 1   
    32    9   33 1   
    33   10   34 1   
    34   10   35 1   
    35   11   36 1   
    36   12   37 1   
    37   13   38 1   
    38   14   39 1   
    39   15   40 1   
    40   16   41 1   
    41   17   42 1   
    42   17   43 1   
    43   18   44 1   
    44   18   45 1   
    45   19   46 1   
    46   19   47 1   
    47   20   48 1   
    48   20   49 1   
    49   21   50 1   
    50   21   51 1   
    51   21   52 1   
@<TRIPOS>SUBSTRUCTURE
     1 LIG         1 TEMP              0 ****  ****    0 ROOT
