@<TRIPOS>MOLECULE
PQ0
   18    19     1     0     0
SMALL
bcc


@<TRIPOS>ATOM
      1 N          -1.2520   -0.0030    1.6650 n         1 LIG     -0.508400
      2 C          -0.0810    0.0010    2.3630 cc        1 LIG      0.686800
      3 N1          1.0870    0.0000    1.7640 nd        1 LIG     -0.684100
      4 C1          1.1830   -0.0000    0.4270 cd        1 LIG      0.200100
      5 C2          0.0130    0.0000   -0.3390 cc        1 LIG     -0.247600
      6 C3         -1.2360    0.0000    0.3130 c         1 LIG      0.750100
      7 O          -2.2750    0.0000   -0.3250 o         1 LIG     -0.605500
      8 C4          0.4430    0.0000   -1.7460 cc        1 LIG     -0.011000
      9 C5         -0.3990    0.0000   -2.9030 cg        1 LIG      0.264800
     10 N2         -1.0690    0.0000   -3.8210 n1        1 LIG     -0.358800
     11 C6          1.8060   -0.0000   -1.7270 cd        1 LIG     -0.110300
     12 N3          2.2420   -0.0000   -0.4370 na        1 LIG     -0.165100
     13 N4         -0.1250    0.0010    3.7340 nh        1 LIG     -0.893800
     14 H          -2.1110   -0.0080    2.1460 hn        1 LIG      0.336500
     15 H1          2.4130    0.0000   -2.5610 h4        1 LIG      0.184000
     16 H2          3.1880    0.0000   -0.1650 hn        1 LIG      0.316700
     17 H3         -0.9930    0.0020    4.1990 hn        1 LIG      0.422300
     18 H4          0.7110    0.0000    4.2530 hn        1 LIG      0.422300
@<TRIPOS>BOND
     1    1    2 1   
     2    1    6 1   
     3    2    3 2   
     4    2   13 1   
     5    3    4 1   
     6    4    5 ar  
     7    4   12 ar  
     8    5    6 1   
     9    5    8 ar  
    10    6    7 2   
    11    8    9 1   
    12    8   11 ar  
    13    9   10 3   
    14   11   12 ar  
    15    1   14 1   
    16   11   15 1   
    17   12   16 1   
    18   13   17 1   
    19   13   18 1   
@<TRIPOS>SUBSTRUCTURE
     1 LIG         1 TEMP              0 ****  ****    0 ROOT
