@<TRIPOS>MOLECULE
ZD9
   33    34     1     0     0
SMALL
bcc


@<TRIPOS>ATOM
      1 C          -2.4170   -1.5480   -0.1400 c         1 LIG      0.710100
      2 N          -3.6880   -1.1660    0.1290 n         1 LIG     -0.500400
      3 C1         -3.9880    0.1440    0.3310 cc        1 LIG      0.497900
      4 N1         -3.1050    1.0950    0.2820 nd        1 LIG     -0.626100
      5 C2         -1.7990    0.8400    0.0210 ca        1 LIG      0.195400
      6 C3         -1.3930   -0.4950   -0.2020 ca        1 LIG     -0.199600
      7 O          -2.1330   -2.7180   -0.3180 o         1 LIG     -0.620500
      8 C4         -0.0560   -0.7820   -0.4720 ca        1 LIG     -0.030000
      9 C5          0.8620    0.2440   -0.5180 ca        1 LIG     -0.131300
     10 C6          0.4660    1.5570   -0.2990 ca        1 LIG     -0.030300
     11 C7         -0.8490    1.8620   -0.0320 ca        1 LIG     -0.130000
     12 C8          2.3090   -0.0610   -0.8090 c3        1 LIG      0.220100
     13 N2          3.0660   -0.0780    0.4440 n3        1 LIG     -0.595800
     14 C9          4.3970   -0.3330    0.4290 c1        1 LIG     -0.052200
     15 C10         5.5500   -0.5540    0.4150 c1        1 LIG     -0.170100
     16 C11         6.9960   -0.8320    0.3980 c3        1 LIG      0.001000
     17 C12         1.4900    2.6620   -0.3550 c3        1 LIG     -0.063800
     18 C13        -5.4190    0.5110    0.6270 c3        1 LIG     -0.144400
     19 H          -4.4010   -1.8430    0.1790 hn        1 LIG      0.335500
     20 H1          0.2440   -1.7560   -0.6360 ha        1 LIG      0.166000
     21 H2         -1.1320    2.8410    0.1280 ha        1 LIG      0.154000
     22 H3          2.7090    0.6910   -1.4570 h1        1 LIG      0.054200
     23 H4          2.3830   -1.0170   -1.2840 h1        1 LIG      0.054200
     24 H5          2.6080    0.0960    1.2980 hn        1 LIG      0.393800
     25 H6          7.5050   -0.1080    0.9990 hc        1 LIG      0.050033
     26 H7          7.3580   -0.7780   -0.6080 hc        1 LIG      0.050033
     27 H8          7.1760   -1.8110    0.7900 hc        1 LIG      0.050033
     28 H9          2.4520    2.2460   -0.5720 hc        1 LIG      0.051367
     29 H10         1.5240    3.1650    0.5890 hc        1 LIG      0.051367
     30 H11         1.2210    3.3590   -1.1210 hc        1 LIG      0.051367
     31 H12        -6.0200   -0.3740    0.6330 hc        1 LIG      0.069367
     32 H13        -5.7790    1.1810   -0.1260 hc        1 LIG      0.069367
     33 H14        -5.4750    0.9870    1.5840 hc        1 LIG      0.069367
@<TRIPOS>BOND
     1    1    2 1   
     2    2    3 1   
     3    3    4 2   
     4    3   18 1   
     5    5    4 1   
     6    5   11 ar  
     7    6    1 1   
     8    6    5 ar  
     9    7    1 2   
    10    8    6 ar  
    11    8    9 ar  
    12    9   10 ar  
    13   10   17 1   
    14   10   11 ar  
    15   12    9 1   
    16   13   12 1   
    17   14   13 1   
    18   15   14 3   
    19   16   15 1   
    20    2   19 1   
    21    8   20 1   
    22   11   21 1   
    23   12   22 1   
    24   12   23 1   
    25   13   24 1   
    26   16   25 1   
    27   16   26 1   
    28   16   27 1   
    29   17   28 1   
    30   17   29 1   
    31   17   30 1   
    32   18   31 1   
    33   18   32 1   
    34   18   33 1   
@<TRIPOS>SUBSTRUCTURE
     1 LIG         1 TEMP              0 ****  ****    0 ROOT
