@<TRIPOS>MOLECULE
EVJ
   14    14     1     0     0
SMALL
bcc


@<TRIPOS>ATOM
      1 S          -1.4090    0.0190    0.1120 S.y       1 LIG      1.565200
      2 O          -1.9070    1.2270    0.6720 O.3       1 LIG     -0.660800
      3 S1          1.4900   -1.1440   -0.0020 S.3       1 LIG      0.262200
      4 C           0.3430    0.1890    0.0400 C.c       1 LIG     -0.497600
      5 O1         -1.6660   -1.2610    0.6730 O.3       1 LIG     -0.660800
      6 C1          1.0030    1.3480    0.0070 C.d       1 LIG     -0.031000
      7 C2          2.3810    1.2330   -0.0490 C.d       1 LIG     -0.180000
      8 C3          2.8410   -0.0190   -0.0620 C.c       1 LIG     -0.180100
      9 N          -1.9610   -0.0350   -1.4480 N.3       1 LIG     -1.026700
     10 H           0.5220    2.2610    0.0220 H         1 LIG      0.177000
     11 H1          3.0060    2.0540   -0.0790 H         1 LIG      0.163000
     12 H2          3.8370   -0.2870   -0.1010 H         1 LIG      0.179000
     13 H3         -1.7990    0.8660   -1.8970 H         1 LIG      0.445800
     14 H4         -2.9600   -0.2400   -1.4480 H         1 LIG      0.445800
@<TRIPOS>BOND
     1    1    9 1   
     2    2    1 2   
     3    4    1 1   
     4    4    3 ar  
     5    5    1 2   
     6    6    4 ar  
     7    7    6 ar  
     8    7    8 ar  
     9    8    3 ar  
    10    6   10 1   
    11    7   11 1   
    12    8   12 1   
    13    9   13 1   
    14    9   14 1   
@<TRIPOS>SUBSTRUCTURE
     1 LIG         1 TEMP              0 ****  ****    0 ROOT
