@<TRIPOS>MOLECULE
C6P
   37    37     1     0     0
SMALL
bcc


@<TRIPOS>ATOM
      1 N           4.1100   -1.6440   -0.9150 N.4       1 CYS     -0.632000
      2 C           1.9810   -2.0280   -2.0730 C.        1 CYS      0.912600
      3 O           1.2260   -2.5270   -1.2470 O.3       1 CYS     -0.818800
      4 P          -0.1330    0.7050    1.3850 P.5       0 UNK      1.348900
      5 O          -0.3540    0.1030    2.8690 O.3       0 UNK     -0.723167
      6 O1         -0.2630   -0.5960    0.4330 O.3       0 UNK     -0.723167
      7 O2         -1.0290    1.8510    1.0170 O.3       0 UNK     -0.723167
      8 O3          1.4500    1.0280    1.3320 O.2       0 UNK     -0.613200
      9 C           2.3620   -0.0110    1.6670 C.3       0 UNK      0.219700
     10 C1          3.7570    0.4970    1.5530 C.a       0 UNK     -0.354600
     11 C2          4.3760    1.0780    2.6490 C.a       0 UNK      0.424200
     12 N           5.6370    1.5650    2.6360 N.b       0 UNK     -0.778000
     13 C3          6.3070    1.4640    1.4660 C.a       0 UNK      0.402600
     14 C4          7.6990    2.0060    1.4640 C.3       0 UNK     -0.122400
     15 C5          5.7790    0.9020    0.3150 C.a       0 UNK     -0.130200
     16 O4          6.5080    0.8320   -0.8300 O.h       0 UNK     -0.532100
     17 C6          4.4820    0.4140    0.3740 C.a       0 UNK      0.130700
     18 C7          3.8630   -0.2050   -0.8460 C.3       0 UNK     -0.286900
     19 CA          3.4870   -2.2320   -2.0740 C.3       1 CYS     -0.032500
     20 OXT         1.5460   -1.2460   -3.0900 O.3       1 CYS     -0.818800
     21 CB          3.8740   -3.7030   -2.2480 C.3       1 CYS      0.026700
     22 SG          3.2830   -4.4390   -3.8090 S.h       1 CYS     -0.487900
     23 H1          5.1160   -1.8060   -0.9620 H         1 CYS      0.450800
     24 H2          3.7110   -2.0780   -0.0830 H         1 CYS      0.450800
     25 H           2.2260   -0.8340    0.9970 H         0 UNK      0.037200
     26 H3          2.1810   -0.3340    2.6710 H         0 UNK      0.037200
     27 H4          3.8410    1.1430    3.5290 H         0 UNK      0.004100
     28 H5          7.9310    2.3960    2.4330 H         0 UNK      0.027700
     29 H6          7.7770    2.7870    0.7370 H         0 UNK      0.027700
     30 H7          8.3860    1.2230    1.2210 H         0 UNK      0.027700
     31 H8          7.3830    1.1670   -0.8500 H         0 UNK      0.400000
     32 H9          2.8070   -0.0370   -0.8210 H         0 UNK      0.146200
     33 H10         4.3060    0.2480   -1.7080 H         0 UNK      0.146200
     34 HA          3.8660   -1.7140   -2.9300 H         1 CYS      0.100700
     35 HB1         3.4590   -4.2600   -1.4340 H         1 CYS      0.084200
     36 HB2         4.9430   -3.7440   -2.2690 H         1 CYS      0.084200
     37 HG          1.9230   -4.4130   -3.8360 H         1 CYS      0.285800
@<TRIPOS>BOND
     1    1   19 1   
     2    1   18 1   
     3    2    3 1   
     4    2   19 1   
     5    2   20 1   
     6    4    7 1   
     7    4    6 1   
     8    4    5 1   
     9    4    8 1   
    10    8    9 1   
    11    9   10 1   
    12   10   17 ar  
    13   10   11 ar  
    14   11   12 ar  
    15   12   13 ar  
    16   13   15 ar  
    17   13   14 1   
    18   15   17 ar  
    19   15   16 1   
    20   17   18 1   
    21   19   21 1   
    22   21   22 1   
    23    1   23 1   
    24    1   24 1   
    25    9   25 1   
    26    9   26 1   
    27   11   27 1   
    28   14   28 1   
    29   14   29 1   
    30   14   30 1   
    31   16   31 1   
    32   18   32 1   
    33   18   33 1   
    34   19   34 1   
    35   21   35 1   
    36   21   36 1   
    37   22   37 1   
@<TRIPOS>SUBSTRUCTURE
     1 CYS         1 TEMP              0 ****  ****    0 ROOT
