@<TRIPOS>MOLECULE
PBD
   42    43     1     0     0
SMALL
bcc


@<TRIPOS>ATOM
      1 C           6.6010    2.0730   -0.0780 c3        1 LIG      0.109700
      2 C1          4.9320   -3.2720   -0.3620 c3        1 LIG      0.109700
      3 S           0.3550    1.5120   -0.7030 s         1 LIG     -0.560400
      4 C2         -8.0370   -0.3280    0.7780 cc        1 LIG      0.289200
      5 C3          2.7080    1.0430    0.6110 ca        1 LIG     -0.104000
      6 C4          4.0300    1.3660    0.3730 ca        1 LIG     -0.171000
      7 C5         -6.9380    0.4440    0.8720 cd        1 LIG     -0.252600
      8 C6         -6.8070   -0.7830   -0.9360 cd        1 LIG      0.384400
      9 C7          3.2050   -1.2800    0.2340 ca        1 LIG     -0.213000
     10 C8         -3.7430   -0.0740    0.1040 c3        1 LIG     -0.132400
     11 C9         -2.3880    0.5510   -0.2320 c3        1 LIG      0.064000
     12 C10        -4.8590    0.7540   -0.5360 c3        1 LIG      0.044300
     13 N          -7.9310   -1.0670   -0.3360 nc        1 LIG     -0.665000
     14 N1         -1.3190   -0.2420    0.3810 n         1 LIG     -0.513900
     15 N2          0.9520   -0.6070    0.7830 n         1 LIG     -0.413100
     16 O           6.2460    0.6910   -0.1670 os        1 LIG     -0.302900
     17 O1          5.4270   -1.9330   -0.3070 os        1 LIG     -0.301900
     18 C11        -0.0320    0.1230    0.2190 c         1 LIG      0.564400
     19 C12         2.2920   -0.2800    0.5410 ca        1 LIG      0.031600
     20 C13         4.9440    0.3710    0.0660 ca        1 LIG      0.102100
     21 C14         4.5310   -0.9560   -0.0040 ca        1 LIG      0.115100
     22 N3         -6.1570    0.1560   -0.2150 na        1 LIG     -0.210900
     23 H           7.6450    2.1870   -0.2820 h1        1 LIG      0.045700
     24 H1          6.3880    2.4330    0.9070 h1        1 LIG      0.045700
     25 H2          6.0350    2.6330   -0.7930 h1        1 LIG      0.045700
     26 H3          5.7320   -3.9380   -0.6080 h1        1 LIG      0.043700
     27 H4          4.1690   -3.3400   -1.1090 h1        1 LIG      0.043700
     28 H5          4.5240   -3.5410    0.5900 h1        1 LIG      0.043700
     29 H6         -8.8230   -0.3480    1.4460 h4        1 LIG      0.043100
     30 H7          2.0290    1.7860    0.8410 ha        1 LIG      0.180000
     31 H8          4.3370    2.3500    0.4240 ha        1 LIG      0.147000
     32 H9         -6.7250    1.1230    1.6200 h4        1 LIG      0.179000
     33 H10        -6.4710   -1.2060   -1.8150 h5        1 LIG      0.058100
     34 H11         2.8960   -2.2640    0.1830 ha        1 LIG      0.136000
     35 H12        -3.8750   -0.0900    1.1660 hc        1 LIG      0.059700
     36 H13        -3.7790   -1.0740   -0.2750 hc        1 LIG      0.059700
     37 H14        -2.3530    1.5510    0.1470 h1        1 LIG      0.084700
     38 H15        -2.2560    0.5670   -1.2940 h1        1 LIG      0.084700
     39 H16        -4.7270    0.7700   -1.5980 h1        1 LIG      0.065200
     40 H17        -4.8240    1.7540   -0.1560 h1        1 LIG      0.065200
     41 H18        -1.5410   -1.0410    0.9110 hn        1 LIG      0.294500
     42 H19         0.7280   -1.3690    1.3650 hn        1 LIG      0.301500
@<TRIPOS>BOND
     1    1   16 1   
     2    2   17 1   
     3    3   18 2   
     4    4    7 ar  
     5    4   13 ar  
     6    5    6 ar  
     7    5   19 ar  
     8    6   20 ar  
     9    7   22 ar  
    10    8   13 ar  
    11    8   22 ar  
    12    9   19 ar  
    13    9   21 ar  
    14   10   11 1   
    15   10   12 1   
    16   11   14 1   
    17   12   22 1   
    18   14   18 1   
    19   15   18 1   
    20   15   19 1   
    21   16   20 1   
    22   17   21 1   
    23   20   21 ar  
    24    1   23 1   
    25    1   24 1   
    26    1   25 1   
    27    2   26 1   
    28    2   27 1   
    29    2   28 1   
    30    4   29 1   
    31    5   30 1   
    32    6   31 1   
    33    7   32 1   
    34    8   33 1   
    35    9   34 1   
    36   10   35 1   
    37   10   36 1   
    38   11   37 1   
    39   11   38 1   
    40   12   39 1   
    41   12   40 1   
    42   14   41 1   
    43   15   42 1   
@<TRIPOS>SUBSTRUCTURE
     1 LIG         1 TEMP              0 ****  ****    0 ROOT
