@<TRIPOS>MOLECULE
MRD
   22    21     1     0     0
SMALL
bcc


@<TRIPOS>ATOM
      1 C          -0.6830   -0.7730   -2.2950 C.3       1 LIG     -0.125600
      2 C1         -0.0880   -0.0080   -1.1110 C.3       1 LIG      0.154800
      3 O           1.3160   -0.2610   -1.0380 O.h       1 LIG     -0.610800
      4 C2         -0.3270    1.4900   -1.3000 C.3       1 LIG     -0.125600
      5 C3         -0.7580   -0.4720    0.1840 C.3       1 LIG     -0.107400
      6 C4         -0.1630    0.2930    1.3670 C.3       1 LIG      0.146100
      7 O1          1.2410    0.0400    1.4410 O.h       1 LIG     -0.605800
      8 C5         -0.8330   -0.1700    2.6630 C.3       1 LIG     -0.124100
      9 H          -0.2150   -0.4490   -3.2010 H         1 LIG      0.046033
     10 H1         -1.7350   -0.5840   -2.3500 H         1 LIG      0.046033
     11 H2         -0.5160   -1.8210   -2.1630 H         1 LIG      0.046033
     12 H3          1.7410    0.0330   -1.8590 H         1 LIG      0.404000
     13 H4          0.1410    1.8150   -2.2060 H         1 LIG      0.046033
     14 H5          0.0890    2.0250   -0.4720 H         1 LIG      0.046033
     15 H6         -1.3790    1.6790   -1.3550 H         1 LIG      0.046033
     16 H7         -0.5910   -1.5200    0.3170 H         1 LIG      0.057200
     17 H8         -1.8100   -0.2830    0.1290 H         1 LIG      0.057200
     18 H9         -0.3300    1.3410    1.2330 H         1 LIG      0.061700
     19 H10         1.3920   -0.9100    1.5620 H         1 LIG      0.418000
     20 H11        -0.6660   -1.2180    2.7960 H         1 LIG      0.041033
     21 H12        -1.8850    0.0190    2.6080 H         1 LIG      0.041033
     22 H13        -0.4170    0.3650    3.4910 H         1 LIG      0.041033
@<TRIPOS>BOND
     1    1    2 1   
     2    2    3 1   
     3    2    4 1   
     4    2    5 1   
     5    5    6 1   
     6    6    7 1   
     7    6    8 1   
     8    1    9 1   
     9    1   10 1   
    10    1   11 1   
    11    3   12 1   
    12    4   13 1   
    13    4   14 1   
    14    4   15 1   
    15    5   16 1   
    16    5   17 1   
    17    6   18 1   
    18    7   19 1   
    19    8   20 1   
    20    8   21 1   
    21    8   22 1   
@<TRIPOS>SUBSTRUCTURE
     1 LIG         1 TEMP              0 ****  ****    0 ROOT
