@<TRIPOS>MOLECULE
1FB
   38    40     1     0     0
SMALL
bcc


@<TRIPOS>ATOM
      1 C           3.5620    2.4200    1.1780 C.3       1 LIG     -0.105433
      2 C1          2.6910    2.2660   -0.0710 C.3       1 LIG      0.101700
      3 C2          1.6430    3.3810   -0.1020 C.3       1 LIG     -0.105433
      4 C3          3.5690    2.3580   -1.3200 C.3       1 LIG     -0.105433
      5 N           2.0190    0.9650   -0.0400 N.a       1 LIG      0.001200
      6 N1          0.6340    0.7690   -0.0400 N.c       1 LIG     -0.559100
      7 C4          2.6450   -0.2440   -0.0140 C.a       1 LIG      0.499800
      8 N2          3.9180   -0.6380   -0.0060 N.b       1 LIG     -0.752000
      9 C5          4.2250   -1.9170    0.0230 C.a       1 LIG      0.702900
     10 N3          3.3100   -2.8700    0.0450 N.b       1 LIG     -0.807000
     11 C6          2.0130   -2.5780    0.0390 C.a       1 LIG      0.781200
     12 N4          1.0620   -3.5790    0.0630 N.h       1 LIG     -0.962500
     13 C7          1.6340   -1.2250    0.0100 C.a       1 LIG     -0.520500
     14 C8          0.3630   -0.5090   -0.0090 C.d       1 LIG      0.569200
     15 O          -0.8750   -1.0690    0.0010 O.2       1 LIG     -0.319700
     16 C9         -1.9490   -0.2390    0.0570 C.a       1 LIG      0.104100
     17 C10        -3.2310   -0.7540   -0.0650 C.a       1 LIG     -0.126000
     18 C11        -4.3230    0.0930   -0.0070 C.a       1 LIG      0.027400
     19 Cl         -5.9290   -0.5500   -0.1590 C.l       1 LIG     -0.087400
     20 C12        -4.1370    1.4520    0.1720 C.a       1 LIG     -0.130000
     21 C13        -2.8590    1.9670    0.2930 C.a       1 LIG     -0.108000
     22 C14        -1.7660    1.1240    0.2420 C.a       1 LIG     -0.131000
     23 H           2.9470    2.3560    2.0510 H         1 LIG      0.051589
     24 H1          4.0520    3.3710    1.1560 H         1 LIG      0.051589
     25 H2          4.2950    1.6410    1.2000 H         1 LIG      0.051589
     26 H3          1.0280    3.3170    0.7720 H         1 LIG      0.051589
     27 H4          1.0340    3.2740   -0.9750 H         1 LIG      0.051589
     28 H5          2.1340    4.3310   -0.1240 H         1 LIG      0.051589
     29 H6          2.9600    2.2500   -2.1930 H         1 LIG      0.051589
     30 H7          4.3020    1.5790   -1.2990 H         1 LIG      0.051589
     31 H8          4.0590    3.3090   -1.3420 H         1 LIG      0.051589
     32 H9          5.2210   -2.1870    0.0290 H         1 LIG      0.051100
     33 H10         1.3410   -4.5230    0.0830 H         1 LIG      0.451300
     34 H11         0.1050   -3.3490    0.0600 H         1 LIG      0.451300
     35 H12        -3.3700   -1.7680   -0.1990 H         1 LIG      0.163000
     36 H13        -4.9530    2.0830    0.2150 H         1 LIG      0.150000
     37 H14        -2.7220    2.9820    0.4210 H         1 LIG      0.143000
     38 H15        -0.8130    1.5080    0.3420 H         1 LIG      0.156000
@<TRIPOS>BOND
     1    2    5 1   
     2    2    3 1   
     3    2    1 1   
     4    4    2 1   
     5    5    6 1   
     6    5    7 1   
     7    6   14 2   
     8    7    8 ar  
     9    7   13 ar  
    10    8    9 ar  
    11    9   10 ar  
    12   11   10 ar  
    13   11   12 1   
    14   13   11 ar  
    15   14   13 1   
    16   14   15 1   
    17   15   16 1   
    18   16   17 ar  
    19   16   22 ar  
    20   17   18 ar  
    21   18   20 ar  
    22   19   18 1   
    23   20   21 ar  
    24   22   21 ar  
    25    1   23 1   
    26    1   24 1   
    27    1   25 1   
    28    3   26 1   
    29    3   27 1   
    30    3   28 1   
    31    4   29 1   
    32    4   30 1   
    33    4   31 1   
    34    9   32 1   
    35   12   33 1   
    36   12   34 1   
    37   17   35 1   
    38   20   36 1   
    39   21   37 1   
    40   22   38 1   
@<TRIPOS>SUBSTRUCTURE
     1 LIG         1 TEMP              0 ****  ****    0 ROOT
