@<TRIPOS>MOLECULE
EU7
   35    37     1     0     0
SMALL
bcc


@<TRIPOS>ATOM
      1 C           2.7950    1.2640   -0.1510 c3        1 LIG     -0.137100
      2 C1          2.1870   -0.0070    0.4450 c3        1 LIG      0.134500
      3 N           2.7760   -1.1840   -0.2070 n4        1 LIG     -0.845600
      4 C2          0.6730   -0.0040    0.2190 c3        1 LIG     -0.072000
      5 C3          0.0650   -1.2750    0.8150 c3        1 LIG     -0.073067
      6 C4          0.0600    1.2220    0.8990 c3        1 LIG     -0.073067
      7 C5          0.3820    0.0460   -1.2820 c3        1 LIG     -0.073067
      8 C6         -1.4480   -1.2710    0.5890 c3        1 LIG     -0.060033
      9 C7         -1.4540    1.2260    0.6730 c3        1 LIG     -0.060033
     10 C8         -1.1310    0.0500   -1.5080 c3        1 LIG     -0.060033
     11 C9         -2.0620   -0.0450    1.2680 c3        1 LIG     -0.077400
     12 C10        -1.7450    1.2760   -0.8290 c3        1 LIG     -0.077400
     13 C11        -1.7390   -1.2210   -0.9120 c3        1 LIG     -0.077400
     14 H           3.8530    1.2610    0.0070 hc        1 LIG      0.080367
     15 H1          2.3650    2.1210    0.3240 hc        1 LIG      0.080367
     16 H2          2.5910    1.2980   -1.2010 hc        1 LIG      0.080367
     17 H3          2.3910   -0.0410    1.4950 hx        1 LIG      0.104700
     18 H4          2.5810   -1.1510   -1.2080 hn        1 LIG      0.457467
     19 H5          2.3710   -2.0310    0.1910 hn        1 LIG      0.457467
     20 H6          3.7850   -1.1870   -0.0570 hn        1 LIG      0.457467
     21 H7          0.2690   -1.3090    1.8650 hc        1 LIG      0.042367
     22 H8          0.4940   -2.1320    0.3400 hc        1 LIG      0.042367
     23 H9          0.4850    2.1110    0.4820 hc        1 LIG      0.042367
     24 H10         0.2640    1.1880    1.9490 hc        1 LIG      0.042367
     25 H11         0.8110   -0.8110   -1.7570 hc        1 LIG      0.042367
     26 H12         0.8070    0.9350   -1.6980 hc        1 LIG      0.042367
     27 H13        -1.8730   -2.1600    1.0060 hc        1 LIG      0.074700
     28 H14        -1.8830    2.0830    1.1490 hc        1 LIG      0.074700
     29 H15        -1.3350    0.0840   -2.5580 hc        1 LIG      0.074700
     30 H16        -1.8590   -0.0800    2.3180 hc        1 LIG      0.059367
     31 H17        -3.1200   -0.0420    1.1090 hc        1 LIG      0.059367
     32 H18        -1.3190    2.1650   -1.2450 hc        1 LIG      0.059367
     33 H19        -2.8030    1.2790   -0.9880 hc        1 LIG      0.059367
     34 H20        -2.7970   -1.2180   -1.0700 hc        1 LIG      0.059367
     35 H21        -1.3090   -2.0780   -1.3870 hc        1 LIG      0.059367
@<TRIPOS>BOND
     1    1    2 1   
     2    2    3 1   
     3    2    4 1   
     4    4    5 1   
     5    4    6 1   
     6    4    7 1   
     7    5    8 1   
     8    6    9 1   
     9    7   10 1   
    10    8   11 1   
    11    8   13 1   
    12    9   11 1   
    13    9   12 1   
    14   10   12 1   
    15   10   13 1   
    16    1   14 1   
    17    1   15 1   
    18    1   16 1   
    19    2   17 1   
    20    3   18 1   
    21    3   19 1   
    22    3   20 1   
    23    5   21 1   
    24    5   22 1   
    25    6   23 1   
    26    6   24 1   
    27    7   25 1   
    28    7   26 1   
    29    8   27 1   
    30    9   28 1   
    31   10   29 1   
    32   11   30 1   
    33   11   31 1   
    34   12   32 1   
    35   12   33 1   
    36   13   34 1   
    37   13   35 1   
@<TRIPOS>SUBSTRUCTURE
     1 LIG         1 TEMP              0 ****  ****    0 ROOT
