@<TRIPOS>MOLECULE
4MF
   38    40     1     0     0
SMALL
bcc


@<TRIPOS>ATOM
      1 O           0.3390   -0.2270   -4.8680 o         1 LIG     -0.924833
      2 O1          0.8860   -2.6970   -5.0510 o         1 LIG     -0.924833
      3 P           1.5920   -1.2450   -4.9640 p5        1 LIG      1.334900
      4 O2          2.5750   -0.9510   -6.0590 o         1 LIG     -0.924833
      5 O3          2.2110   -1.2320   -3.4680 os        1 LIG     -0.552200
      6 C           1.3480   -1.5000   -2.3770 c3        1 LIG      0.235400
      7 C1          2.1560   -1.4320   -1.0880 c3        1 LIG      0.065100
      8 C2          1.3090   -1.6970    0.1520 c3        1 LIG      0.106100
      9 O4          2.1270   -2.2500    1.1800 oh        1 LIG     -0.623800
     10 C3          0.8780   -0.3120    0.5780 c3        1 LIG     -0.153400
     11 C4          2.1010    0.5160    0.2110 c3        1 LIG      0.259800
     12 O5          2.6780   -0.0930   -0.9580 os        1 LIG     -0.388600
     13 N           1.8180    1.9230   -0.0490 na        1 LIG     -0.096400
     14 C5          1.8920    2.9460    0.8770 ca        1 LIG     -0.074200
     15 C6          2.2390    2.9080    2.2320 ca        1 LIG     -0.143000
     16 C7          2.2290    4.1160    2.9350 ca        1 LIG     -0.166000
     17 C8          1.8840    5.3110    2.3070 ca        1 LIG     -0.172000
     18 C9          1.5390    5.3330    0.9500 ca        1 LIG     -0.072300
     19 C10         1.1770    6.6450    0.3300 c3        1 LIG     -0.034800
     20 C11         1.5430    4.1280    0.2200 ca        1 LIG     -0.056800
     21 C12         1.2550    3.7860   -1.1310 cc        1 LIG     -0.281200
     22 C13         1.4330    2.4290   -1.2660 cd        1 LIG     -0.000100
     23 H           0.9230   -2.4760   -2.4850 h1        1 LIG      0.000200
     24 H1          0.5580   -0.7790   -2.3510 h1        1 LIG      0.000200
     25 H2          2.9190   -2.1800   -1.1480 h1        1 LIG      0.081700
     26 H3          0.4980   -2.3710   -0.0300 h1        1 LIG      0.089700
     27 H4          2.8690   -1.6520    1.3600 ho        1 LIG      0.394000
     28 H5          0.6800   -0.2710    1.6290 hc        1 LIG      0.056700
     29 H6         -0.0280    0.0230    0.1180 hc        1 LIG      0.056700
     30 H7          2.7670    0.5190    1.0480 h2        1 LIG      0.036700
     31 H8          2.4930    2.0210    2.6950 ha        1 LIG      0.112000
     32 H9          2.4810    4.1230    3.9360 ha        1 LIG      0.097000
     33 H10         1.8830    6.1900    2.8480 ha        1 LIG      0.096000
     34 H11         1.2420    7.4180    1.0670 hc        1 LIG      0.028700
     35 H12         0.1770    6.5970   -0.0490 hc        1 LIG      0.028700
     36 H13         1.8520    6.8590   -0.4720 hc        1 LIG      0.028700
     37 H14         0.9650    4.4390   -1.8760 ha        1 LIG      0.154000
     38 H15         1.3000    1.8850   -2.1330 h4        1 LIG      0.330000
@<TRIPOS>BOND
     1    1    3 1   
     2    2    3 1   
     3    3    4 1   
     4    3    5 1   
     5    5    6 1   
     6    6    7 1   
     7    7    8 1   
     8    7   12 1   
     9    8   10 1   
    10    8    9 1   
    11   10   11 1   
    12   11   13 1   
    13   11   12 1   
    14   13   22 1   
    15   13   14 1   
    16   14   20 ar  
    17   14   15 ar  
    18   15   16 ar  
    19   16   17 ar  
    20   17   18 ar  
    21   18   19 1   
    22   18   20 ar  
    23   20   21 1   
    24   21   22 2   
    25    6   23 1   
    26    6   24 1   
    27    7   25 1   
    28    8   26 1   
    29    9   27 1   
    30   10   28 1   
    31   10   29 1   
    32   11   30 1   
    33   15   31 1   
    34   16   32 1   
    35   17   33 1   
    36   19   34 1   
    37   19   35 1   
    38   19   36 1   
    39   21   37 1   
    40   22   38 1   
@<TRIPOS>SUBSTRUCTURE
     1 LIG         1 TEMP              0 ****  ****    0 ROOT
