@<TRIPOS>MOLECULE
DNX
   17    17     1     0     0
SMALL
bcc


@<TRIPOS>ATOM
      1 C           2.4560    0.0110   -0.0230 C.a       1 LIG      0.165100
      2 C1          1.4520   -0.9460   -0.0540 C.a       1 LIG     -0.180000
      3 C2          0.1270   -0.5560   -0.0220 C.a       1 LIG     -0.070200
      4 N          -0.9450   -1.5770   -0.0560 N.o       1 LIG      0.316200
      5 C3         -0.1990    0.7860    0.0420 C.a       1 LIG     -0.163200
      6 N1         -1.6190    1.2000    0.0770 N.o       1 LIG      0.322200
      7 C4          0.8000    1.7410    0.0740 C.a       1 LIG     -0.045000
      8 C5          2.1270    1.3570    0.0410 C.a       1 LIG     -0.136000
      9 O           3.7600   -0.3700   -0.0490 O.h       1 LIG     -0.474100
     10 O1         -0.9240   -2.5080    0.7280 O.3       1 LIG     -0.174500
     11 O2         -1.8480   -1.4840   -0.8680 O.3       1 LIG     -0.174500
     12 O3         -1.9110    2.3810    0.0070 O.3       1 LIG     -0.181500
     13 O4         -2.4960    0.3610    0.1750 O.3       1 LIG     -0.181500
     14 H           1.6950   -1.9480   -0.1010 H         1 LIG      0.179000
     15 H1          0.5540    2.7420    0.1230 H         1 LIG      0.183000
     16 H2          2.8720    2.0710    0.0640 H         1 LIG      0.177000
     17 H3          3.9820   -1.2790   -0.0920 H         1 LIG      0.438000
@<TRIPOS>BOND
     1    1    2 ar  
     2    1    8 ar  
     3    1    9 1   
     4    2    3 ar  
     5    3    4 1   
     6    3    5 ar  
     7    4   10 1   
     8    4   11 1   
     9    5    6 1   
    10    5    7 ar  
    11    6   12 1   
    12    6   13 1   
    13    7    8 ar  
    14    2   14 1   
    15    7   15 1   
    16    8   16 1   
    17    9   17 1   
@<TRIPOS>SUBSTRUCTURE
     1 LIG         1 TEMP              0 ****  ****    0 ROOT
