@<TRIPOS>MOLECULE
JLE
   53    57     1     0     0
SMALL
bcc


@<TRIPOS>ATOM
      1 C          -1.3410   -1.2960    0.4960 C.a       0 UNK     -0.368400
      2 C1         -2.1400   -2.1280    1.2820 C.a       0 UNK      0.468600
      3 C2         -0.0160   -1.7200    0.2280 C.a       0 UNK      0.751200
      4 C3         -0.3930   -3.6270    1.4660 C.a       0 UNK      0.678900
      5 C4         -3.3010   -0.0070    0.5270 C.c       0 UNK     -0.134600
      6 N          -1.6270   -3.2770    1.7420 N.b       0 UNK     -0.758000
      7 CZ          3.6700    1.4110    2.8720 C.a       1 PHE     -0.153000
      8 CE1         4.4030    0.3000    2.4970 C.a       1 PHE     -0.137000
      9 CD1         4.2300   -0.2490    1.2400 C.a       1 PHE     -0.125500
     10 CG          3.3250    0.3120    0.3580 C.a       1 PHE     -0.044300
     11 CB          3.1370   -0.2870   -1.0120 C.3       1 PHE     -0.042100
     12 C5         -2.0470   -0.0890    0.0840 C.d       0 UNK      0.038600
     13 N1          0.4030   -2.8740    0.7270 N.b       0 UNK     -0.784000
     14 C6         -0.2480    2.9250   -2.3500 C.a       0 UNK     -0.155000
     15 C7         -0.8400    1.8210   -2.9250 C.a       0 UNK     -0.081000
     16 C8         -1.4250    0.8400   -2.1400 C.a       0 UNK     -0.116000
     17 C9         -0.2310    3.0700   -0.9650 C.a       0 UNK     -0.063200
     18 C10        -1.4220    0.9580   -0.7560 C.a       0 UNK     -0.013800
     19 C11        -0.8260    2.0850   -0.1600 C.a       0 UNK     -0.086800
     20 CA          2.1470   -1.4510   -0.9280 C.3       1 PHE      0.063500
     21 C12         0.0220    3.6910    1.1790 C.c       0 UNK     -0.144100
     22 C13        -0.6410    2.5230    1.2240 C.d       0 UNK     -0.166200
     23 CE2         2.7610    1.9690    1.9920 C.a       1 PHE     -0.137000
     24 CD2         2.5930    1.4230    0.7340 C.a       1 PHE     -0.125500
     25 C           2.0540   -2.1290   -2.2700 C.        1 PHE      0.910600
     26 OXT         0.9950   -2.1820   -2.8480 O.3       1 PHE     -0.826800
     27 O           3.1490   -2.6730   -2.8250 O.3       1 PHE     -0.826800
     28 N           0.8280   -0.9420   -0.5450 N.h       1 PHE     -0.786900
     29 S          -3.7310   -1.4100    1.4860 S.3       0 UNK     -0.090900
     30 C14        -4.2330    1.1410    0.2340 C.3       0 UNK     -0.009200
     31 C15        -5.0050    0.8550   -1.0550 C.3       0 UNK     -0.087100
     32 N2          0.2760    4.0330   -0.1210 N.a       0 UNK     -0.193400
     33 H          -0.0320   -4.5190    1.8380 H         0 UNK      0.033100
     34 HZ          3.8010    1.8240    3.8090 H         1 PHE      0.112000
     35 HE1         5.0790   -0.1190    3.1550 H         1 PHE      0.114500
     36 HD1         4.7770   -1.0780    0.9600 H         1 PHE      0.134500
     37 HB1         4.0770   -0.6440   -1.3770 H         1 PHE      0.064700
     38 HB2         2.7560    0.4590   -1.6780 H         1 PHE      0.064700
     39 H1          0.1840    3.6470   -2.9480 H         0 UNK      0.124000
     40 H2         -0.8480    1.7240   -3.9520 H         0 UNK      0.156000
     41 H3         -1.8640    0.0190   -2.5850 H         0 UNK      0.174000
     42 HA          2.4840   -2.1550   -0.1960 H         1 PHE      0.083700
     43 H4          0.2980    4.2470    2.0030 H         0 UNK      0.151000
     44 H5         -0.9590    2.0290    2.0730 H         0 UNK      0.158000
     45 HE2         2.2080    2.7930    2.2750 H         1 PHE      0.114500
     46 HD2         1.9210    1.8450    0.0740 H         1 PHE      0.134500
     47 H           0.5420   -0.0460   -0.8380 H         1 PHE      0.451800
     48 H6         -3.6650    2.0410    0.1180 H         0 UNK      0.049200
     49 H7         -4.9220    1.2560    1.0440 H         0 UNK      0.049200
     50 H8         -4.3160    0.7400   -1.8650 H         0 UNK      0.033367
     51 H9         -5.6670    1.6700   -1.2630 H         0 UNK      0.033367
     52 H10        -5.5730   -0.0440   -0.9390 H         0 UNK      0.033367
     53 H11         0.7500    4.8460   -0.4100 H         0 UNK      0.275700
@<TRIPOS>BOND
     1    1    2 ar  
     2    2    6 ar  
     3    2   29 1   
     4    3   13 ar  
     5    3    1 ar  
     6    4    6 ar  
     7    5   30 1   
     8    5   29 1   
     9    8    7 ar  
    10    9    8 ar  
    11   10    9 ar  
    12   10   24 ar  
    13   11   10 1   
    14   11   20 1   
    15   12    1 1   
    16   12    5 2   
    17   13    4 ar  
    18   14   17 ar  
    19   15   14 ar  
    20   15   16 ar  
    21   16   18 ar  
    22   17   32 1   
    23   17   19 ar  
    24   18   19 ar  
    25   18   12 1   
    26   19   22 1   
    27   20   28 1   
    28   21   22 2   
    29   23    7 ar  
    30   24   23 ar  
    31   25   27 1   
    32   25   20 1   
    33   26   25 1   
    34   28    3 1   
    35   30   31 1   
    36   32   21 1   
    37    4   33 1   
    38    7   34 1   
    39    8   35 1   
    40    9   36 1   
    41   11   37 1   
    42   11   38 1   
    43   14   39 1   
    44   15   40 1   
    45   16   41 1   
    46   20   42 1   
    47   21   43 1   
    48   22   44 1   
    49   23   45 1   
    50   24   46 1   
    51   28   47 1   
    52   30   48 1   
    53   30   49 1   
    54   31   50 1   
    55   31   51 1   
    56   31   52 1   
    57   32   53 1   
@<TRIPOS>SUBSTRUCTURE
     1 UNK         1 TEMP              0 ****  ****    0 ROOT
