@<TRIPOS>MOLECULE
E4P
   19    18     1     0     0
SMALL
bcc


@<TRIPOS>ATOM
      1 C           0.0160    0.3080   -3.8040 C.        1 LIG      0.585900
      2 O           0.4980   -0.4390   -4.6210 O.3       1 LIG     -0.606100
      3 C1         -0.4540   -0.2270   -2.4770 C.3       1 LIG      0.069100
      4 O1         -1.8510    0.0350   -2.3260 O.h       1 LIG     -0.668800
      5 C2          0.3170    0.4560   -1.3470 C.3       1 LIG      0.059100
      6 O2          1.7140    0.1930   -1.4980 O.h       1 LIG     -0.655800
      7 C3         -0.1610   -0.0870   -0.0000 C.3       1 LIG      0.214400
      8 O3          0.5600    0.5510    1.0540 O.2       1 LIG     -0.565200
      9 P           0.0080   -0.0650    2.4350 P.5       1 LIG      1.330900
     10 O4          0.2400   -1.5270    2.4500 O.3       1 LIG     -0.928167
     11 O5          0.7810    0.6120    3.6730 O.3       1 LIG     -0.928167
     12 O6         -1.5690    0.2280    2.5620 O.3       1 LIG     -0.928167
     13 H          -0.0740    1.3140   -4.0150 H         1 LIG     -0.021800
     14 H1         -0.2810   -1.2820   -2.4380 H         1 LIG      0.042700
     15 H2         -2.0060    0.9920   -2.3610 H         1 LIG      0.519000
     16 H3          0.1450    1.5110   -1.3860 H         1 LIG      0.078700
     17 H4          1.8690   -0.7640   -1.4630 H         1 LIG      0.408000
     18 H5          0.0090   -1.1430    0.0400 H         1 LIG     -0.001800
     19 H6         -1.2060    0.1100    0.1130 H         1 LIG     -0.001800
@<TRIPOS>BOND
     1    1    2 2   
     2    1    3 1   
     3    3    4 1   
     4    3    5 1   
     5    5    6 1   
     6    5    7 1   
     7    7    8 1   
     8    8    9 1   
     9    9   10 1   
    10    9   11 1   
    11    9   12 1   
    12    1   13 1   
    13    3   14 1   
    14    4   15 1   
    15    5   16 1   
    16    6   17 1   
    17    7   18 1   
    18    7   19 1   
@<TRIPOS>SUBSTRUCTURE
     1 LIG         1 TEMP              0 ****  ****    0 ROOT
