@<TRIPOS>MOLECULE
9U4
   71    76     1     0     0
SMALL
bcc


@<TRIPOS>ATOM
      1 C          -4.7790   -2.7740    0.7630 C.3       1 LIG     -0.126400
      2 C1         -4.2700    2.5540   -0.4710 C.3       1 LIG      0.072000
      3 C2         -4.2900    1.0750   -0.8760 C.3       1 LIG     -0.045100
      4 C3         -3.2800    0.3280   -0.0410 C.c       1 LIG     -0.095600
      5 C4         -2.2660    0.9150    0.6440 C.d       1 LIG     -0.279600
      6 C5         -1.5400   -0.0900    1.2900 C.d       1 LIG      0.509200
      7 C6         -4.1090   -2.0100   -0.3830 C.3       1 LIG      0.075000
      8 N          -1.0870    4.2840   -1.1550 N.        1 LIG     -0.542900
      9 C7         -2.3930    3.9520   -1.1980 C.        1 LIG      0.723100
     10 C8         -0.5840    5.3860   -1.9790 C.3       1 LIG      0.063300
     11 C9         -5.6630   -3.8800    0.1800 C.3       1 LIG      0.124900
     12 C10        -4.2530   -4.0930   -1.7490 C.3       1 LIG      0.124900
     13 C11        -3.3130   -2.9960   -1.2430 C.3       1 LIG     -0.126400
     14 C12        -0.5590    0.4120    3.5250 C.3       1 LIG      0.190800
     15 C13         0.4180    1.5470    3.8580 C.3       1 LIG     -0.084400
     16 C14         1.8460    1.0520    3.6320 C.3       1 LIG     -0.035100
     17 C15         1.9820    0.4410    2.2620 C.a       1 LIG     -0.096300
     18 C16         0.8760   -0.0100    1.5570 C.a       1 LIG      0.143600
     19 C17         1.0330   -0.5750    0.2950 C.a       1 LIG     -0.149000
     20 C18         2.2880   -0.6870   -0.2640 C.a       1 LIG     -0.127300
     21 C19         3.4010   -0.2320    0.4400 C.a       1 LIG      0.027000
     22 C20         3.2420    0.3310    1.7030 C.a       1 LIG     -0.110000
     23 C21         4.7560   -0.3490   -0.1560 C.c       1 LIG     -0.224300
     24 C22         5.1680    0.1780   -1.3960 C.c       1 LIG      0.326200
     25 C23         5.8300   -0.9790    0.4000 C.d       1 LIG     -0.127300
     26 C24         8.2140   -1.3890   -0.2570 C.3       1 LIG      0.041600
     27 C25         2.4550   -1.2990   -1.6300 C.3       1 LIG      0.456200
     28 C26        -2.0190    2.4040    0.6700 C.3       1 LIG      0.146300
     29 F           2.8130   -0.3040   -2.5460 F.        1 LIG     -0.245800
     30 F1          3.4580   -2.2740   -1.5850 F.        1 LIG     -0.245800
     31 N1         -2.1040   -1.2430    1.0040 N.c       1 LIG     -0.526800
     32 N2         -3.2030   -0.9980    0.1680 N.a       1 LIG      0.118400
     33 N3         -0.4120    0.0980    2.0970 N.h       1 LIG     -0.591700
     34 N4          6.4250   -0.1310   -1.5710 N.d       1 LIG     -0.511800
     35 N5          6.8640   -0.8570   -0.4580 N.a       1 LIG      0.084400
     36 N6         -2.8750    3.0080   -0.3660 N.        1 LIG     -0.417800
     37 O          -4.8670   -4.7440   -0.6340 O.2       1 LIG     -0.409600
     38 O1         -3.1350    4.5050   -1.9860 O.3       1 LIG     -0.637100
     39 H          -4.0290   -3.2080    1.3910 H         1 LIG      0.071450
     40 H1         -5.3780   -2.1020    1.3420 H         1 LIG      0.071450
     41 H2         -4.7800    3.1350   -1.2110 H         1 LIG      0.073700
     42 H3         -4.7590    2.6750    0.4730 H         1 LIG      0.073700
     43 H4         -4.0390    0.9830   -1.9120 H         1 LIG      0.069200
     44 H5         -5.2660    0.6680   -0.7160 H         1 LIG      0.069200
     45 H6         -4.8540   -1.5290   -0.9820 H         1 LIG      0.065700
     46 H7         -0.4710    3.7860   -0.5700 H         1 LIG      0.303500
     47 H8         -1.3900    5.8050   -2.5440 H         1 LIG      0.051033
     48 H9          0.1670    5.0180   -2.6470 H         1 LIG      0.051033
     49 H10        -0.1610    6.1390   -1.3480 H         1 LIG      0.051033
     50 H11        -6.4370   -3.4420   -0.4150 H         1 LIG      0.052200
     51 H12        -6.1020   -4.4440    0.9760 H         1 LIG      0.052200
     52 H13        -5.0090   -3.6580   -2.3690 H         1 LIG      0.052200
     53 H14        -3.6950   -4.8080   -2.3170 H         1 LIG      0.052200
     54 H15        -2.5340   -3.4350   -0.6560 H         1 LIG      0.071450
     55 H16        -2.8800   -2.4810   -2.0750 H         1 LIG      0.071450
     56 H17        -0.3280   -0.4510    4.1130 H         1 LIG      0.052200
     57 H18        -1.5640    0.7080    3.7410 H         1 LIG      0.052200
     58 H19         0.2960    1.8380    4.8800 H         1 LIG      0.055200
     59 H20         0.2230    2.3900    3.2290 H         1 LIG      0.055200
     60 H21         2.0850    0.3160    4.3710 H         1 LIG      0.053700
     61 H22         2.5160    1.8830    3.7090 H         1 LIG      0.053700
     62 H23         0.2070   -0.9110   -0.2240 H         1 LIG      0.149000
     63 H24         4.0670    0.6670    2.2240 H         1 LIG      0.137000
     64 H25         4.5790    0.7150   -2.0520 H         1 LIG      0.055100
     65 H26         5.8480   -1.4620    1.3120 H         1 LIG      0.175000
     66 H27         8.2600   -1.8990    0.6820 H         1 LIG      0.057367
     67 H28         8.9190   -0.5840   -0.2600 H         1 LIG      0.057367
     68 H29         8.4490   -2.0720   -1.0460 H         1 LIG      0.057367
     69 H30         1.5330   -1.7490   -1.9340 H         1 LIG      0.071700
     70 H31        -0.9900    2.6080    0.4600 H         1 LIG      0.071700
     71 H32        -2.2470    2.8090    1.6340 H         1 LIG      0.071700
@<TRIPOS>BOND
     1    1   11 1   
     2    2   36 1   
     3    2    3 1   
     4    3    4 1   
     5    4   32 ar  
     6    5    4 ar  
     7    5    6 ar  
     8    6   33 1   
     9    6   31 ar  
    10    7   13 1   
    11    7    1 1   
    12    9    8 1   
    13    9   36 1   
    14   10    8 1   
    15   11   37 1   
    16   12   37 1   
    17   13   12 1   
    18   14   33 1   
    19   14   15 1   
    20   15   16 1   
    21   16   17 1   
    22   17   22 ar  
    23   18   17 ar  
    24   18   19 ar  
    25   19   20 ar  
    26   20   21 ar  
    27   20   27 1   
    28   21   23 1   
    29   22   21 ar  
    30   23   24 ar  
    31   23   25 ar  
    32   24   34 ar  
    33   25   35 ar  
    34   28    5 1   
    35   29   27 1   
    36   30   27 1   
    37   32    7 1   
    38   32   31 ar  
    39   33   18 1   
    40   34   35 ar  
    41   35   26 1   
    42   36   28 1   
    43   38    9 2   
    44    1   39 1   
    45    1   40 1   
    46    2   41 1   
    47    2   42 1   
    48    3   43 1   
    49    3   44 1   
    50    7   45 1   
    51    8   46 1   
    52   10   47 1   
    53   10   48 1   
    54   10   49 1   
    55   11   50 1   
    56   11   51 1   
    57   12   52 1   
    58   12   53 1   
    59   13   54 1   
    60   13   55 1   
    61   14   56 1   
    62   14   57 1   
    63   15   58 1   
    64   15   59 1   
    65   16   60 1   
    66   16   61 1   
    67   19   62 1   
    68   22   63 1   
    69   24   64 1   
    70   25   65 1   
    71   26   66 1   
    72   26   67 1   
    73   26   68 1   
    74   27   69 1   
    75   28   70 1   
    76   28   71 1   
@<TRIPOS>SUBSTRUCTURE
     1 LIG         1 TEMP              0 ****  ****    0 ROOT
