@<TRIPOS>MOLECULE
5HN
   14    14     1     0     0
SMALL
bcc


@<TRIPOS>ATOM
      1 O           2.9190   -0.6120   -0.0170 O.3       1 LIG     -0.825300
      2 C           1.9490    0.3220   -0.0010 C.        1 LIG      0.912200
      3 O1          2.2400    1.5010    0.0110 O.3       1 LIG     -0.825300
      4 C1          0.5290   -0.0880    0.0040 C.a       1 LIG     -0.198900
      5 C2         -0.4890    0.8730    0.0150 C.a       1 LIG     -0.154000
      6 C3         -1.8060    0.4350    0.0190 C.a       1 LIG     -0.034200
      7 O2         -2.8290    1.3300    0.0290 O.h       1 LIG     -0.518100
      8 C4         -2.0660   -0.9290    0.0120 C.a       1 LIG      0.338200
      9 N          -1.0830   -1.8080    0.0010 N.b       1 LIG     -0.682000
     10 C5          0.1820   -1.4400   -0.0090 C.a       1 LIG      0.375200
     11 H          -0.2660    1.8810    0.0200 H         1 LIG      0.157000
     12 H1         -2.6470    2.2490    0.0340 H         1 LIG      0.409000
     13 H2         -3.0430   -1.2600    0.0150 H         1 LIG      0.006100
     14 H3          0.9230   -2.1580   -0.0270 H         1 LIG      0.040100
@<TRIPOS>BOND
     1    1    2 1   
     2    2    4 1   
     3    3    2 1   
     4    4   10 ar  
     5    4    5 ar  
     6    5    6 ar  
     7    6    8 ar  
     8    6    7 1   
     9    9    8 ar  
    10   10    9 ar  
    11    5   11 1   
    12    7   12 1   
    13    8   13 1   
    14   10   14 1   
@<TRIPOS>SUBSTRUCTURE
     1 LIG         1 TEMP              0 ****  ****    0 ROOT
