@<TRIPOS>MOLECULE
FLC
   18    17     1     0     0
SMALL
bcc


@<TRIPOS>ATOM
      1 C          -2.4870    0.3880   -0.0090 C.        1 LIG      0.914600
      2 C1         -1.2580    1.1060   -0.5030 C.3       1 LIG     -0.167900
      3 C2         -0.0080    0.4240    0.0590 C.3       1 LIG      0.097800
      4 C3          0.0290   -1.0110   -0.4000 C.        1 LIG      0.892600
      5 C4          1.2400    1.1530   -0.4430 C.3       1 LIG     -0.167900
      6 C5          2.4710    0.4100    0.0090 C.        1 LIG      0.914600
      7 O          -2.3750   -0.5800    0.7250 O.3       1 LIG     -0.907800
      8 O1         -3.5940    0.7750   -0.3420 O.3       1 LIG     -0.907800
      9 O2          0.0270   -1.9550    0.4580 O.3       1 LIG     -0.895300
     10 O3          0.0640   -1.2820   -1.6450 O.3       1 LIG     -0.895300
     11 O4          2.3600   -0.6090    0.6710 O.3       1 LIG     -0.907800
     12 O5          3.5780    0.8270   -0.2880 O.3       1 LIG     -0.907800
     13 O6         -0.0440    0.4670    1.4870 O.h       1 LIG     -0.627800
     14 H          -1.2850    2.1250   -0.1770 H         1 LIG      0.035950
     15 H1         -1.2320    1.0740   -1.5720 H         1 LIG      0.035950
     16 H2          1.2570    2.1460   -0.0460 H         1 LIG      0.035950
     17 H3          1.2220    1.1970   -1.5120 H         1 LIG      0.035950
     18 H4         -0.8350    0.0050    1.8040 H         1 LIG      0.422000
@<TRIPOS>BOND
     1    1    2 1   
     2    1    7 1   
     3    1    8 1   
     4    2    3 1   
     5    3    4 1   
     6    3    5 1   
     7    3   13 1   
     8    4    9 1   
     9    4   10 1   
    10    5    6 1   
    11    6   11 1   
    12    6   12 1   
    13    2   14 1   
    14    2   15 1   
    15    5   16 1   
    16    5   17 1   
    17   13   18 1   
@<TRIPOS>SUBSTRUCTURE
     1 LIG         1 TEMP              0 ****  ****    0 ROOT
