@<TRIPOS>MOLECULE
D8W
   27    28     1     0     0
SMALL
bcc


@<TRIPOS>ATOM
      1 C          -3.7790   -0.6640    0.9780 ca        1 LIG      0.004000
      2 C1         -4.1070   -1.9840    1.2230 ca        1 LIG     -0.159500
      3 C2         -3.5790   -2.9860    0.4300 ca        1 LIG     -0.050000
      4 C3         -2.7240   -2.6670   -0.6090 ca        1 LIG     -0.159500
      5 C4         -2.3980   -1.3460   -0.8540 ca        1 LIG      0.004000
      6 C5         -2.9240   -0.3450   -0.0600 ca        1 LIG     -0.417500
      7 S          -2.5070    1.3380   -0.3730 sy        1 LIG      1.521200
      8 O          -2.1160    1.4080   -1.7370 o         1 LIG     -0.633300
      9 O1         -3.5590    2.1210    0.1750 o         1 LIG     -0.633300
     10 N          -1.1550    1.6820    0.5200 nh        1 LIG     -0.811800
     11 C6          0.0420    1.0410    0.2400 cc        1 LIG      0.611300
     12 S1          1.5740    1.2810    1.0820 ss        1 LIG      0.053200
     13 N1          0.2370    0.1480   -0.6880 nd        1 LIG     -0.385000
     14 N2          1.3980   -0.3330   -0.8020 nd        1 LIG     -0.201000
     15 C7          2.3120    0.0900    0.0090 cc        1 LIG     -0.041700
     16 S2          3.9930   -0.4350    0.0420 sy        1 LIG      1.487800
     17 O2          4.7730    0.6910   -0.3380 o         1 LIG     -0.651800
     18 O3          4.1740   -1.1270    1.2700 o         1 LIG     -0.651800
     19 N3          4.1790   -1.5590   -1.1600 n3        1 LIG     -1.016700
     20 H          -4.1730    0.0840    1.5700 ha        1 LIG      0.161000
     21 H1         -4.7460   -2.2220    1.9980 ha        1 LIG      0.147000
     22 H2         -3.8230   -3.9720    0.6140 ha        1 LIG      0.141000
     23 H3         -2.3290   -3.4140   -1.2010 ha        1 LIG      0.147000
     24 H4         -1.7610   -1.1070   -1.6300 ha        1 LIG      0.161000
     25 H5         -1.2010    2.3410    1.2500 hn        1 LIG      0.462800
     26 H6          4.0580   -1.1090   -2.0670 hn        1 LIG      0.456300
     27 H7          3.4810   -2.2940   -1.0490 hn        1 LIG      0.456300
@<TRIPOS>BOND
     1    1    2 ar  
     2    1    6 ar  
     3    2    3 ar  
     4    3    4 ar  
     5    4    5 ar  
     6    5    6 ar  
     7    6    7 1   
     8    7    8 2   
     9    7    9 2   
    10    7   10 1   
    11   10   11 1   
    12   11   12 ar  
    13   11   13 ar  
    14   12   15 ar  
    15   13   14 ar  
    16   14   15 ar  
    17   15   16 1   
    18   16   17 2   
    19   16   18 2   
    20   16   19 1   
    21    1   20 1   
    22    2   21 1   
    23    3   22 1   
    24    4   23 1   
    25    5   24 1   
    26   10   25 1   
    27   19   26 1   
    28   19   27 1   
@<TRIPOS>SUBSTRUCTURE
     1 LIG         1 TEMP              0 ****  ****    0 ROOT
