@<TRIPOS>MOLECULE
PIN
   36    36     1     0     0
SMALL
bcc


@<TRIPOS>ATOM
      1 C           0.3870    0.5200    3.5170 c3        1 LIG     -0.295600
      2 C1         -0.8210   -0.0600    2.7810 c3        1 LIG      0.188800
      3 N          -0.8210    0.4130    1.3900 n4        1 LIG     -0.705400
      4 C2         -2.0000   -0.1760    0.7440 c3        1 LIG      0.077800
      5 C3          0.3570   -0.1750    0.7440 c3        1 LIG      0.077800
      6 C4          0.3870   -0.5190   -3.5170 c3        1 LIG     -0.295600
      7 C5         -0.8220    0.0590   -2.7800 c3        1 LIG      0.188800
      8 N1         -0.8210   -0.4140   -1.3900 n4        1 LIG     -0.705400
      9 C6          0.3570    0.1750   -0.7440 c3        1 LIG      0.077800
     10 C7         -2.0010    0.1740   -0.7440 c3        1 LIG      0.077800
     11 S           0.3880   -0.0640    5.2340 s6        1 LIG      1.446800
     12 S1          0.3870    0.0640   -5.2340 s6        1 LIG      1.446800
     13 O           0.6920   -1.4500    5.3150 o         1 LIG     -0.713533
     14 O1         -0.6630    0.5230    5.9870 o         1 LIG     -0.713533
     15 O2          1.6300    0.5880    5.8220 o         1 LIG     -0.713533
     16 O3         -0.6630   -0.5240   -5.9870 o         1 LIG     -0.713533
     17 O4          0.6900    1.4500   -5.3150 o         1 LIG     -0.713533
     18 O5          1.6300   -0.5870   -5.8220 o         1 LIG     -0.713533
     19 H           0.3330    1.5890    3.5040 h1        1 LIG      0.085200
     20 H1          1.2860    0.2020    3.0320 h1        1 LIG      0.085200
     21 H2         -1.7200    0.2580    3.2660 hx        1 LIG      0.111700
     22 H3         -0.7670   -1.1290    2.7940 hx        1 LIG      0.111700
     23 H4         -0.8210    1.4310    1.3300 hn        1 LIG      0.444800
     24 H5         -2.8870    0.2110    1.2010 hx        1 LIG      0.128450
     25 H6         -1.9720   -1.2400    0.8580 hx        1 LIG      0.128450
     26 H7          0.3320   -1.2380    0.8590 hx        1 LIG      0.128450
     27 H8          1.2430    0.2150    1.2000 hx        1 LIG      0.128450
     28 H9          0.3350   -1.5880   -3.5040 h1        1 LIG      0.085200
     29 H10         1.2860   -0.1990   -3.0330 h1        1 LIG      0.085200
     30 H11        -1.7210   -0.2600   -3.2650 hx        1 LIG      0.111700
     31 H12        -0.7700    1.1280   -2.7930 hx        1 LIG      0.111700
     32 H13        -0.8200   -1.4320   -1.3300 hn        1 LIG      0.444800
     33 H14         1.2440   -0.2120   -1.2000 hx        1 LIG      0.128450
     34 H15         0.3290    1.2380   -0.8580 hx        1 LIG      0.128450
     35 H16        -1.9770    1.2380   -0.8600 hx        1 LIG      0.128450
     36 H17        -2.8870   -0.2160   -1.2000 hx        1 LIG      0.128450
@<TRIPOS>BOND
     1    1    2 1   
     2    1   11 1   
     3    2    3 1   
     4    3    4 1   
     5    3    5 1   
     6    4   10 1   
     7    5    9 1   
     8    6    7 1   
     9    6   12 1   
    10    7    8 1   
    11    8    9 1   
    12    8   10 1   
    13   11   13 1   
    14   11   14 1   
    15   11   15 1   
    16   12   16 1   
    17   12   17 1   
    18   12   18 1   
    19    1   19 1   
    20    1   20 1   
    21    2   21 1   
    22    2   22 1   
    23    3   23 1   
    24    4   24 1   
    25    4   25 1   
    26    5   26 1   
    27    5   27 1   
    28    6   28 1   
    29    6   29 1   
    30    7   30 1   
    31    7   31 1   
    32    8   32 1   
    33    9   33 1   
    34    9   34 1   
    35   10   35 1   
    36   10   36 1   
@<TRIPOS>SUBSTRUCTURE
     1 LIG         1 TEMP              0 ****  ****    0 ROOT
