@<TRIPOS>MOLECULE
DAP
   36    38     1     0     0
SMALL
bcc


@<TRIPOS>ATOM
      1 N           0.7640    0.1980   -0.6550 N.a       1 LIG     -0.200400
      2 C          -0.2520   -0.0570    0.2350 C.c       1 LIG      0.193700
      3 C1         -1.3860   -0.3510   -0.4500 C.d       1 LIG      0.063800
      4 C2         -1.8520   -0.4650   -2.9920 C.a       1 LIG      0.075000
      5 C3         -1.2770   -0.3220   -4.2180 C.a       1 LIG     -0.176000
      6 C4          0.0760    0.0200   -4.3320 C.a       1 LIG      0.106100
      7 C5          0.8490    0.2170   -3.1920 C.a       1 LIG     -0.170000
      8 C6          0.2730    0.0730   -1.9380 C.a       1 LIG      0.103800
      9 C7         -1.0890   -0.2710   -1.8330 C.a       1 LIG     -0.137800
     10 C8          0.6860    0.1730   -5.6700 C.e       1 LIG      0.590800
     11 N1          1.9450    0.4910   -5.7800 N.2       1 LIG     -0.712100
     12 N2         -0.0760   -0.0210   -6.8020 N.h       1 LIG     -0.874800
     13 C9         -0.1280   -0.0240    1.7070 C.a       1 LIG     -0.131800
     14 C10        -1.1570    0.5120    2.4830 C.a       1 LIG     -0.003500
     15 C11        -1.0410    0.5420    3.8540 C.a       1 LIG     -0.140000
     16 C12         0.1040    0.0350    4.4690 C.a       1 LIG      0.048100
     17 C13         1.1360   -0.4960    3.6930 C.a       1 LIG     -0.140000
     18 C14         1.0190   -0.5310    2.3220 C.a       1 LIG     -0.003500
     19 C15         0.2280    0.0670    5.9430 C.e       1 LIG      0.585800
     20 N3         -0.7310    0.5690    6.6670 N.2       1 LIG     -0.710100
     21 N4          1.3600   -0.4320    6.5500 N.h       1 LIG     -0.878800
     22 H           1.6900    0.4310   -0.4160 H         1 LIG      0.361700
     23 H1         -2.3010   -0.5900   -0.0370 H         1 LIG      0.225000
     24 H2         -2.8500   -0.7160   -2.9170 H         1 LIG      0.207000
     25 H3         -1.8420   -0.4670   -5.0690 H         1 LIG      0.210000
     26 H4          1.8460    0.4690   -3.2790 H         1 LIG      0.213000
     27 H5          2.4900    0.6300   -4.9720 H         1 LIG      0.422400
     28 H6         -1.0270   -0.2610   -6.7200 H         1 LIG      0.427800
     29 H7          0.3310    0.0810   -7.6930 H         1 LIG      0.427800
     30 H8         -2.0050    0.8860    2.0290 H         1 LIG      0.167500
     31 H9         -1.8010    0.9400    4.4270 H         1 LIG      0.211000
     32 H10         1.9870   -0.8620    4.1470 H         1 LIG      0.211000
     33 H11         1.7780   -0.9310    1.7490 H         1 LIG      0.167500
     34 H12        -1.5400    0.9260    6.2340 H         1 LIG      0.419400
     35 H13         2.0850   -0.8120    6.0030 H         1 LIG      0.420800
     36 H14         1.4440   -0.4090    7.5310 H         1 LIG      0.420800
@<TRIPOS>BOND
     1    1    2 1   
     2    1    8 1   
     3    2    3 2   
     4    2   13 1   
     5    3    9 1   
     6    4    5 ar  
     7    4    9 ar  
     8    5    6 ar  
     9    6    7 ar  
    10    6   10 1   
    11    7    8 ar  
    12    8    9 ar  
    13   10   11 2   
    14   10   12 1   
    15   13   14 ar  
    16   13   18 ar  
    17   14   15 ar  
    18   15   16 ar  
    19   16   17 ar  
    20   16   19 1   
    21   17   18 ar  
    22   19   20 2   
    23   19   21 1   
    24    1   22 1   
    25    3   23 1   
    26    4   24 1   
    27    5   25 1   
    28    7   26 1   
    29   11   27 1   
    30   12   28 1   
    31   12   29 1   
    32   14   30 1   
    33   15   31 1   
    34   17   32 1   
    35   18   33 1   
    36   20   34 1   
    37   21   35 1   
    38   21   36 1   
@<TRIPOS>SUBSTRUCTURE
     1 LIG         1 TEMP              0 ****  ****    0 ROOT
