@<TRIPOS>MOLECULE
TLZ
   26    25     1     0     0
SMALL
bcc


@<TRIPOS>ATOM
      1 O          -4.3060    0.0490    0.2040 O.h       1 LIG     -0.605800
      2 C          -3.0840    0.5960   -0.2940 C.3       1 LIG      0.099900
      3 C1         -1.9010   -0.1640    0.3090 C.3       1 LIG      0.091100
      4 O1         -1.9230   -1.5180   -0.1490 O.h       1 LIG     -0.606300
      5 C2         -0.5930    0.5000   -0.1250 C.3       1 LIG      0.097600
      6 O2         -0.5720    1.8530    0.3330 O.h       1 LIG     -0.591800
      7 C3          0.5890   -0.2610    0.4780 C.3       1 LIG      0.097600
      8 O3          0.5680   -1.6150    0.0200 O.h       1 LIG     -0.591800
      9 C4          1.8980    0.4030    0.0440 C.3       1 LIG      0.091100
     10 O4          1.9400    0.4850   -1.3820 O.h       1 LIG     -0.606300
     11 C5          3.0810   -0.4290    0.5420 C.3       1 LIG      0.099900
     12 O5          4.3020    0.2500    0.2390 O.h       1 LIG     -0.605800
     13 H          -5.0560    0.5310   -0.1790 H         1 LIG      0.412000
     14 H1         -3.0610    0.5040   -1.3600 H         1 LIG      0.047450
     15 H2         -3.0190    1.6290   -0.0230 H         1 LIG      0.047450
     16 H3         -1.9720   -0.1460    1.3770 H         1 LIG      0.080200
     17 H4         -1.8590   -1.5330   -1.1170 H         1 LIG      0.421000
     18 H5         -0.5210    0.4830   -1.1920 H         1 LIG      0.090200
     19 H6         -0.6370    1.8680    1.3010 H         1 LIG      0.416500
     20 H7          0.5160   -0.2440    1.5450 H         1 LIG      0.090200
     21 H8          0.6340   -1.6300   -0.9480 H         1 LIG      0.416500
     22 H9          1.9540    1.3870    0.4600 H         1 LIG      0.080200
     23 H10         1.8890   -0.4070   -1.7590 H         1 LIG      0.421000
     24 H11         3.0740   -1.3840    0.0590 H         1 LIG      0.047450
     25 H12         3.0010   -0.5650    1.6000 H         1 LIG      0.047450
     26 H13         4.3740    0.3730   -0.7210 H         1 LIG      0.412000
@<TRIPOS>BOND
     1    2    3 1   
     2    2    1 1   
     3    3    4 1   
     4    5    6 1   
     5    5    3 1   
     6    7    5 1   
     7    8    7 1   
     8    9    7 1   
     9   10    9 1   
    10   11    9 1   
    11   12   11 1   
    12    1   13 1   
    13    2   14 1   
    14    2   15 1   
    15    3   16 1   
    16    4   17 1   
    17    5   18 1   
    18    6   19 1   
    19    7   20 1   
    20    8   21 1   
    21    9   22 1   
    22   10   23 1   
    23   11   24 1   
    24   11   25 1   
    25   12   26 1   
@<TRIPOS>SUBSTRUCTURE
     1 LIG         1 TEMP              0 ****  ****    0 ROOT
