@<TRIPOS>MOLECULE
M7B
   31    31     1     0     0
SMALL
bcc


@<TRIPOS>ATOM
      1 P          -4.0000    0.2290    0.0790 p5        1 LIG      1.334900
      2 C           2.4690    1.6270   -0.6440 c3        1 LIG      0.327900
      3 C1          3.7070    0.9050   -0.1050 c3        1 LIG      0.088100
      4 O           3.7870    1.0860    1.3100 oh        1 LIG     -0.630800
      5 C2          3.5950   -0.5900   -0.4240 c3        1 LIG      0.126100
      6 O1          4.7100   -1.2830    0.1400 oh        1 LIG     -0.631800
      7 C3          2.2960   -1.1330    0.1780 c3        1 LIG      0.044100
      8 O2          2.1460   -2.5100   -0.1740 oh        1 LIG     -0.652800
      9 C4          1.1130   -0.3320   -0.3720 c3        1 LIG      0.111100
     10 C5         -0.1830   -0.8300    0.2700 c3        1 LIG      0.099100
     11 O3         -0.3630   -2.2150   -0.0330 oh        1 LIG     -0.669800
     12 C6         -1.3650   -0.0300   -0.2800 c3        1 LIG      0.181400
     13 O4         -2.5600   -0.4140    0.4030 os        1 LIG     -0.573200
     14 O5         -4.4380   -0.1630   -1.4200 o         1 LIG     -0.920167
     15 O6         -5.0880   -0.3390    1.1220 o         1 LIG     -0.920167
     16 O7         -3.9220    1.7020    0.2010 o         1 LIG     -0.920167
     17 O8          2.5390    3.0130   -0.3020 oh        1 LIG     -0.647800
     18 O9          1.2950    1.0520   -0.0680 os        1 LIG     -0.463600
     19 H           2.4310    1.5250   -1.7080 h2        1 LIG      0.042700
     20 H1          4.5870    1.3070   -0.5630 h1        1 LIG      0.035700
     21 H2          2.9910    0.7230    1.7280 ho        1 LIG      0.485000
     22 H3          3.5900   -0.7350   -1.4840 h1        1 LIG      0.051700
     23 H4          4.7180   -1.1540    1.1010 ho        1 LIG      0.450000
     24 H5          2.3270   -1.0420    1.2440 h1        1 LIG      0.164700
     25 H6          2.1170   -2.5960   -1.1400 ho        1 LIG      0.467000
     26 H7          1.0560   -0.4600   -1.4330 h1        1 LIG      0.055700
     27 H8         -0.1280   -0.7010    1.3310 h1        1 LIG      0.017700
     28 H9         -0.4130   -2.3320   -0.9950 ho        1 LIG      0.481000
     29 H10        -1.4730   -0.2270   -1.3260 h1        1 LIG      0.007200
     30 H11        -1.1890    1.0150   -0.1300 h1        1 LIG      0.007200
     31 H12         2.5740    3.1070    0.6630 ho        1 LIG      0.451000
@<TRIPOS>BOND
     1    1   15 1   
     2    1   13 1   
     3    1   14 1   
     4    2    3 1   
     5    3    5 1   
     6    4    3 1   
     7    5    6 1   
     8    7    5 1   
     9    7    8 1   
    10    9    7 1   
    11   10    9 1   
    12   11   10 1   
    13   12   10 1   
    14   13   12 1   
    15   16    1 1   
    16   17    2 1   
    17   18    2 1   
    18   18    9 1   
    19    2   19 1   
    20    3   20 1   
    21    4   21 1   
    22    5   22 1   
    23    6   23 1   
    24    7   24 1   
    25    8   25 1   
    26    9   26 1   
    27   10   27 1   
    28   11   28 1   
    29   12   29 1   
    30   12   30 1   
    31   17   31 1   
@<TRIPOS>SUBSTRUCTURE
     1 LIG         1 TEMP              0 ****  ****    0 ROOT
