@<TRIPOS>MOLECULE
IGU
   35    37     1     0     0
SMALL
bcc


@<TRIPOS>ATOM
      1 P          -4.8120   -1.1320    0.1990 p5        1 LIG      1.330900
      2 O          -5.9470   -0.2100   -0.0250 o         1 LIG     -0.929500
      3 O1         -5.1500   -2.1110    1.4320 o         1 LIG     -0.929500
      4 O2         -4.5620   -2.0090   -1.1280 o         1 LIG     -0.929500
      5 O3         -3.4870   -0.2820    0.5370 os        1 LIG     -0.553200
      6 C          -2.9870    0.7510   -0.3150 c3        1 LIG      0.226400
      7 C1         -1.7220    1.3520    0.3010 c3        1 LIG      0.050100
      8 O4         -0.6540    0.3800    0.3190 os        1 LIG     -0.436600
      9 C2         -1.1630    2.4850   -0.5960 c3        1 LIG      0.155100
     10 O5         -1.7860    3.7340   -0.2890 oh        1 LIG     -0.669800
     11 C3          0.3340    2.5030   -0.2020 c3        1 LIG     -0.130400
     12 C4          0.5790    1.1120    0.4140 c3        1 LIG      0.254800
     13 N           1.6310    0.4150   -0.3310 na        1 LIG     -0.263900
     14 C5          1.5680    0.0200   -1.6380 cc        1 LIG      0.521400
     15 N1          2.6750   -0.5700   -1.9780 nd        1 LIG     -0.695000
     16 C6          4.8100   -1.0830   -0.7020 cc        1 LIG      0.303600
     17 N2          5.4960   -1.7060   -1.7080 nh        1 LIG     -0.825600
     18 C7          3.5190   -0.5920   -0.9140 cd        1 LIG      0.061300
     19 N3          5.3700   -0.9270    0.5330 n         1 LIG     -0.491100
     20 C8          4.6890   -0.3140    1.5170 c         1 LIG      0.830900
     21 O6          5.2150   -0.1880    2.6120 o         1 LIG     -0.677500
     22 N4          3.4680    0.1700    1.3290 nc        1 LIG     -0.399400
     23 C9          2.8570    0.0470    0.1540 cd        1 LIG      0.076400
     24 H          -3.7290    1.5150   -0.4230 h1        1 LIG     -0.005300
     25 H1         -2.7560    0.3400   -1.2760 h1        1 LIG     -0.005300
     26 H2         -1.9980    1.6890    1.2780 h1        1 LIG      0.079700
     27 H3         -1.3330    2.3310   -1.6410 h1        1 LIG      0.101700
     28 H4         -1.6660    3.9320    0.6530 ho        1 LIG      0.501000
     29 H5          0.5290    3.2750    0.5130 hc        1 LIG      0.055200
     30 H6          0.9750    2.7010   -1.0360 hc        1 LIG      0.055200
     31 H7          0.8920    1.1980    1.4340 h2        1 LIG      0.079700
     32 H8          0.7600    0.1680   -2.2630 h5        1 LIG      0.126100
     33 H9          5.0810   -1.8120   -2.5940 hn        1 LIG      0.407300
     34 H10         6.4050   -2.0480   -1.5460 hn        1 LIG      0.407300
     35 H11         6.2780   -1.2660    0.7040 hn        1 LIG      0.319500
@<TRIPOS>BOND
     1    1    2 1   
     2    1    3 1   
     3    1    4 1   
     4    1    5 1   
     5    5    6 1   
     6    6    7 1   
     7    7    8 1   
     8    7    9 1   
     9    8   12 1   
    10    9   10 1   
    11    9   11 1   
    12   11   12 1   
    13   12   13 1   
    14   13   14 ar  
    15   13   23 ar  
    16   14   15 ar  
    17   15   18 ar  
    18   16   17 1   
    19   16   18 2   
    20   16   19 1   
    21   18   23 ar  
    22   19   20 1   
    23   20   21 2   
    24   20   22 1   
    25   22   23 2   
    26    6   24 1   
    27    6   25 1   
    28    7   26 1   
    29    9   27 1   
    30   10   28 1   
    31   11   29 1   
    32   11   30 1   
    33   12   31 1   
    34   14   32 1   
    35   17   33 1   
    36   17   34 1   
    37   19   35 1   
@<TRIPOS>SUBSTRUCTURE
     1 LIG         1 TEMP              0 ****  ****    0 ROOT
