@<TRIPOS>MOLECULE
0GY
   17    16     1     0     0
SMALL
bcc


@<TRIPOS>ATOM
      1 C          -2.0130   -1.6430    0.0510 C.        1 LIG      0.903800
      2 C1         -2.1130   -0.1800   -0.0060 C.e       1 LIG     -0.237200
      3 C2         -1.0040    0.5700   -0.2670 C.f       1 LIG     -0.088200
      4 C3          0.2600   -0.0860   -0.6080 C.f       1 LIG     -0.239000
      5 C4          1.3210    0.0100    0.2310 C.e       1 LIG      0.035900
      6 O           3.6810   -0.4540    0.6680 O.3       1 LIG     -0.872300
      7 C5          2.6260   -0.5500   -0.1650 C.        1 LIG      0.928800
      8 O1          2.7510   -1.0980   -1.2420 O.3       1 LIG     -0.872300
      9 O2          1.1820    0.6210    1.4330 O.h       1 LIG     -0.563100
     10 C6         -1.0790    2.0490   -0.2060 C.        1 LIG      0.900800
     11 O3          0.0370    2.7870   -0.3670 O.3       1 LIG     -0.887300
     12 O4         -2.1450    2.5960   -0.0110 O.3       1 LIG     -0.887300
     13 O5         -3.0860   -2.3790    0.4080 O.3       1 LIG     -0.895800
     14 O6         -0.9650   -2.1920   -0.2270 O.3       1 LIG     -0.895800
     15 H          -3.0230    0.2810    0.1510 H         1 LIG      0.080000
     16 H1          0.3430   -0.6210   -1.4860 H         1 LIG      0.146000
     17 H2          0.3520    0.9770    1.6850 H         1 LIG      0.443000
@<TRIPOS>BOND
     1    1   13 1   
     2    2    1 1   
     3    3    2 2   
     4    4    3 1   
     5    5    9 1   
     6    5    4 2   
     7    7    6 1   
     8    7    5 1   
     9    8    7 1   
    10   10   11 1   
    11   10    3 1   
    12   12   10 1   
    13   14    1 1   
    14    2   15 1   
    15    4   16 1   
    16    9   17 1   
@<TRIPOS>SUBSTRUCTURE
     1 LIG         1 TEMP              0 ****  ****    0 ROOT
