@<TRIPOS>MOLECULE
KU0
   58    61     1     0     0
SMALL
bcc


@<TRIPOS>ATOM
      1 C          -5.0340   -1.0990    1.5300 C.a       1 LIG     -0.075400
      2 C1          6.6530   -1.2760    0.1130 C.a       1 LIG     -0.392500
      3 C2          7.3640   -1.2700   -1.0720 C.a       1 LIG     -0.013500
      4 C3          7.9000   -2.4450   -1.5630 C.a       1 LIG     -0.153000
      5 C4          7.7260   -3.6280   -0.8680 C.a       1 LIG     -0.060000
      6 C5          7.0160   -3.6340    0.3180 C.a       1 LIG     -0.153000
      7 C6          6.4790   -2.4590    0.8080 C.a       1 LIG     -0.013500
      8 C7         -0.8020    3.7100    0.1250 C.c       1 LIG      0.025900
      9 C8         -2.2050    3.6260   -0.3020 C.        1 LIG      0.653700
     10 C9         -2.8240    0.7340   -3.3180 C.3       1 LIG     -0.089400
     11 C10        -4.0230   -0.2420   -3.4530 C.3       1 LIG     -0.096400
     12 C11        -4.1390   -1.7100    0.6430 C.a       1 LIG     -0.091600
     13 C12        -4.4680   -0.3950   -1.9780 C.3       1 LIG      0.077000
     14 C13        -4.3120   -3.0700    0.3640 C.a       1 LIG     -0.075400
     15 C14        -5.3510   -3.7520    0.9710 C.a       1 LIG      0.404700
     16 C15        -6.0410   -1.8600    2.0950 C.a       1 LIG      0.404700
     17 C16        -3.0420   -0.9380    0.0170 C.        1 LIG      0.674700
     18 C17        -2.1790    0.3120   -1.9810 C.3       1 LIG      0.064400
     19 C18        -1.7070    1.5310   -1.2310 C.c       1 LIG      0.460900
     20 C19         0.0330    2.6500   -0.1910 C.d       1 LIG      0.049400
     21 C20         1.4580    2.6790    0.2090 C.        1 LIG      0.696300
     22 C21         3.6180    1.5870    0.4900 C.3       1 LIG      0.121000
     23 C22         4.3170    0.3120    0.0130 C.3       1 LIG     -0.353600
     24 N          -3.2140   -0.3910   -1.2030 N.        1 LIG     -0.469800
     25 N1         -0.4620    1.5950   -0.8630 N.d       1 LIG     -0.596300
     26 N2          2.2390    1.6010   -0.0040 N.        1 LIG     -0.537900
     27 N3         -2.5970    2.5200   -0.9720 N.        1 LIG     -0.448400
     28 N4         -6.1710   -3.1380    1.8000 N.b       1 LIG     -0.630000
     29 O          -1.9870   -0.7980    0.6030 O.3       1 LIG     -0.543100
     30 O1          1.9240    3.6740    0.7280 O.3       1 LIG     -0.576100
     31 O2          5.8930    0.0090    2.1450 O.3       1 LIG     -0.656300
     32 O3          6.8120    1.2380    0.2050 O.3       1 LIG     -0.656300
     33 O4         -0.3390    4.7910    0.8020 O.h       1 LIG     -0.456100
     34 O5         -2.9900    4.5260   -0.0600 O.3       1 LIG     -0.635500
     35 S           5.9760    0.2230    0.7430 S.y       1 LIG      1.389300
     36 Cl         -4.8770    0.5850    1.9190 C.l       1 LIG     -0.043400
     37 Cl1        -3.2390   -3.8900   -0.7270 C.l       1 LIG     -0.043400
     38 H           7.4950   -0.3870   -1.5910 H         1 LIG      0.153500
     39 H1          8.4300   -2.4400   -2.4480 H         1 LIG      0.143000
     40 H2          8.1260   -4.5060   -1.2350 H         1 LIG      0.138000
     41 H3          6.8870   -4.5160    0.8380 H         1 LIG      0.143000
     42 H4          5.9480   -2.4640    1.6930 H         1 LIG      0.153500
     43 H5         -3.1580    1.7500   -3.2800 H         1 LIG      0.071200
     44 H6         -2.1470    0.6860   -4.1450 H         1 LIG      0.071200
     45 H7         -3.7180   -1.1800   -3.8680 H         1 LIG      0.062700
     46 H8         -4.7950    0.1050   -4.1070 H         1 LIG      0.062700
     47 H9         -5.0940    0.4230   -1.6870 H         1 LIG      0.055700
     48 H10        -5.0380   -1.2860   -1.8190 H         1 LIG      0.055700
     49 H11        -5.4860   -4.7560    0.7720 H         1 LIG      0.048600
     50 H12        -6.7000   -1.4210    2.7570 H         1 LIG      0.048600
     51 H13        -1.3330   -0.3220   -2.1480 H         1 LIG      0.115700
     52 H14         3.6140    1.6130    1.5600 H         1 LIG      0.076700
     53 H15         4.1400    2.4420    0.1150 H         1 LIG      0.076700
     54 H16         4.3970    0.3270   -1.0540 H         1 LIG      0.119700
     55 H17         3.7480   -0.5420    0.3160 H         1 LIG      0.119700
     56 H18         1.8830    0.8230   -0.4910 H         1 LIG      0.319500
     57 H19        -3.5300    2.4320   -1.2720 H         1 LIG      0.349500
     58 H20        -0.9180    5.4990    1.0070 H         1 LIG      0.450000
@<TRIPOS>BOND
     1    1   36 1   
     2    1   16 ar  
     3    2    3 ar  
     4    2    7 ar  
     5    3    4 ar  
     6    4    5 ar  
     7    5    6 ar  
     8    7    6 ar  
     9    8   33 1   
    10    8    9 1   
    11    9   34 2   
    12   11   10 1   
    13   12    1 ar  
    14   13   24 1   
    15   13   11 1   
    16   14   12 ar  
    17   14   15 ar  
    18   15   28 ar  
    19   17   12 1   
    20   17   24 1   
    21   18   10 1   
    22   18   19 1   
    23   19   27 1   
    24   20    8 2   
    25   21   30 2   
    26   21   20 1   
    27   22   26 1   
    28   22   23 1   
    29   23   35 1   
    30   24   18 1   
    31   25   20 1   
    32   25   19 2   
    33   26   21 1   
    34   27    9 1   
    35   28   16 ar  
    36   29   17 2   
    37   31   35 2   
    38   35   32 2   
    39   35    2 1   
    40   37   14 1   
    41    3   38 1   
    42    4   39 1   
    43    5   40 1   
    44    6   41 1   
    45    7   42 1   
    46   10   43 1   
    47   10   44 1   
    48   11   45 1   
    49   11   46 1   
    50   13   47 1   
    51   13   48 1   
    52   15   49 1   
    53   16   50 1   
    54   18   51 1   
    55   22   52 1   
    56   22   53 1   
    57   23   54 1   
    58   23   55 1   
    59   26   56 1   
    60   27   57 1   
    61   33   58 1   
@<TRIPOS>SUBSTRUCTURE
     1 LIG         1 TEMP              0 ****  ****    0 ROOT
