@<TRIPOS>MOLECULE
HLX
   25    24     1     0     0
SMALL
bcc


@<TRIPOS>ATOM
      1 N          -1.1990    1.8650   -0.2040 n4        1 LIG     -0.837600
      2 CA         -1.0850    0.4260   -0.4820 c3        1 LIG     -0.071500
      3 C          -2.3280   -0.2770   -0.0020 c         1 LIG      0.935600
      4 O          -3.0420    0.2490    0.8180 o         1 LIG     -0.756800
      5 C1          0.1350   -0.1390    0.2470 c3        1 LIG     -0.097400
      6 C2          1.4080    0.4860   -0.3280 c3        1 LIG     -0.084400
      7 C3          2.6280   -0.0800    0.4020 c3        1 LIG     -0.064700
      8 C4          2.7460   -1.5780    0.1120 c3        1 LIG     -0.092600
      9 C5          3.8900    0.6350   -0.0850 c3        1 LIG     -0.092600
     10 OXT        -2.6430   -1.4890   -0.4870 o         1 LIG     -0.756800
     11 H1         -0.3580    2.3420   -0.5290 hn        1 LIG      0.442800
     12 H2         -1.3060    2.0100    0.8000 hn        1 LIG      0.442800
     13 H3         -2.0130    2.2420   -0.6900 hn        1 LIG      0.442800
     14 HA         -0.9730    0.2730   -1.5350 hx        1 LIG      0.088700
     15 H           0.1690   -1.2000    0.1160 hc        1 LIG      0.086700
     16 H4          0.0650    0.0900    1.2900 hc        1 LIG      0.086700
     17 H5          1.3750    1.5480   -0.1970 hc        1 LIG      0.027700
     18 H6          1.4780    0.2570   -1.3710 hc        1 LIG      0.027700
     19 H7          2.5160    0.0710    1.4550 hc        1 LIG      0.049700
     20 H8          2.8580   -1.7300   -0.9410 hc        1 LIG      0.037367
     21 H9          1.8630   -2.0780    0.4530 hc        1 LIG      0.037367
     22 H10         3.5990   -1.9740    0.6220 hc        1 LIG      0.037367
     23 H11         4.0020    0.4830   -1.1380 hc        1 LIG      0.037367
     24 H12         4.7430    0.2390    0.4250 hc        1 LIG      0.037367
     25 H13         3.8070    1.6820    0.1180 hc        1 LIG      0.037367
@<TRIPOS>BOND
     1    2    5 1   
     2    2    1 1   
     3    3    4 1   
     4    3    2 1   
     5    3   10 1   
     6    5    6 1   
     7    6    7 1   
     8    7    9 1   
     9    7    8 1   
    10    1   11 1   
    11    1   12 1   
    12    1   13 1   
    13    2   14 1   
    14    5   15 1   
    15    5   16 1   
    16    6   17 1   
    17    6   18 1   
    18    7   19 1   
    19    8   20 1   
    20    8   21 1   
    21    8   22 1   
    22    9   23 1   
    23    9   24 1   
    24    9   25 1   
@<TRIPOS>SUBSTRUCTURE
     1 LIG         1 TEMP              0 ****  ****    0 ROOT
