@<TRIPOS>MOLECULE
9HY
   60    63     1     0     0
SMALL
bcc


@<TRIPOS>ATOM
      1 C           1.7110   -1.2690    2.7710 C.3       1 LIG     -0.170100
      2 C1          2.8510   -2.0980    2.2370 C.        1 LIG      0.668100
      3 C2          4.2530   -2.8640    0.3970 C.3       1 LIG      0.081300
      4 N           5.2920    5.1880   -0.3060 N.1       1 LIG     -0.351800
      5 C3          0.7470    1.9320   -2.3930 C.3       1 LIG     -0.061800
      6 C4          4.3390    0.6200    0.7740 C.a       1 LIG     -0.112000
      7 C5          4.8640    1.8690    0.6750 C.a       1 LIG     -0.103000
      8 N1          3.2240   -1.9790    0.9470 N.        1 LIG     -0.415000
      9 C6          4.8380    4.1490   -0.2360 C.g       1 LIG      0.228800
     10 C7          4.2650    2.8390   -0.1490 C.a       1 LIG     -0.004000
     11 C8         -2.1750   -3.3560   -0.5600 C.a       1 LIG     -0.165000
     12 C9         -1.6100   -2.1090   -0.7770 C.a       1 LIG      0.102100
     13 C10        -2.7120   -1.3730    1.1980 C.3       1 LIG      0.104400
     14 C11        -1.9210   -4.3920   -1.4390 C.a       1 LIG     -0.112000
     15 C12        -1.1050   -4.1880   -2.5360 C.a       1 LIG     -0.127000
     16 C13        -0.5380   -2.9460   -2.7590 C.a       1 LIG     -0.140000
     17 C14        -0.7890   -1.9030   -1.8810 C.a       1 LIG      0.074100
     18 C15        -2.8740   -0.1130    2.0520 C.3       1 LIG      0.089000
     19 C16        -4.9180    0.9810    1.3220 C.        1 LIG      0.805500
     20 C17        -4.9170    2.8030   -0.1410 C.        1 LIG      0.715700
     21 C18        -3.5040    2.7440   -0.1960 C.d       1 LIG     -0.331200
     22 C19        -2.8580    1.7970    0.5170 C.c       1 LIG      0.057600
     23 C20         0.8880   -0.3580   -1.4000 C.a       1 LIG      0.096100
     24 O          -1.8590   -1.0890    0.0870 O.2       1 LIG     -0.334900
     25 O1         -0.2320   -0.6820   -2.0980 O.2       1 LIG     -0.244200
     26 N2         -3.5750    0.9140    1.2780 N.        1 LIG     -0.378000
     27 C21         1.4120    0.9110   -1.5060 C.a       1 LIG     -0.066300
     28 N3         -5.5880    1.9150    0.6210 N.        1 LIG     -0.584500
     29 C22         2.5700    1.2500   -0.7860 C.a       1 LIG     -0.027000
     30 C23         3.1260    2.5360   -0.8760 C.a       1 LIG     -0.078000
     31 O2          3.4330   -2.8710    2.9670 O.3       1 LIG     -0.594100
     32 C24         3.1870    0.2800    0.0440 C.a       1 LIG     -0.033000
     33 C25         2.6280   -1.0120    0.1340 C.a       1 LIG      0.066600
     34 C26         1.4930   -1.3160   -0.5840 C.a       1 LIG     -0.157000
     35 O3         -5.5220    3.6480   -0.7760 O.3       1 LIG     -0.611500
     36 O4         -5.5360    0.1840    2.0000 O.3       1 LIG     -0.648500
     37 H           1.5590   -1.4960    3.8060 H         1 LIG      0.071033
     38 H1          0.8200   -1.4920    2.2220 H         1 LIG      0.071033
     39 H2          1.9450   -0.2300    2.6640 H         1 LIG      0.071033
     40 H3          4.5920   -3.5340    1.1590 H         1 LIG      0.050367
     41 H4          5.0770   -2.2780    0.0450 H         1 LIG      0.050367
     42 H5          3.8430   -3.4260   -0.4160 H         1 LIG      0.050367
     43 H6         -0.1130    1.4960   -2.8560 H         1 LIG      0.057700
     44 H7          1.4350    2.2510   -3.1480 H         1 LIG      0.057700
     45 H8          0.4470    2.7740   -1.8050 H         1 LIG      0.057700
     46 H9          4.7870   -0.0800    1.3860 H         1 LIG      0.153000
     47 H10         5.7130    2.1090    1.2110 H         1 LIG      0.151000
     48 H11        -2.7850   -3.5110    0.2580 H         1 LIG      0.145000
     49 H12        -2.2790   -2.1520    1.7900 H         1 LIG      0.060200
     50 H13        -3.6700   -1.6870    0.8410 H         1 LIG      0.060200
     51 H14        -2.3420   -5.3200   -1.2760 H         1 LIG      0.142000
     52 H15        -0.9180   -4.9640   -3.1900 H         1 LIG      0.143000
     53 H16         0.0710   -2.7960   -3.5780 H         1 LIG      0.152000
     54 H17        -1.9090    0.2510    2.3370 H         1 LIG      0.090200
     55 H18        -3.4400   -0.3470    2.9290 H         1 LIG      0.090200
     56 H19        -2.9750    3.4160   -0.7730 H         1 LIG      0.177000
     57 H20        -1.8280    1.7390    0.4880 H         1 LIG      0.198000
     58 H21        -6.5710    1.9500    0.6650 H         1 LIG      0.352500
     59 H22         2.6890    3.2500   -1.4790 H         1 LIG      0.152000
     60 H23         1.0850   -2.2620   -0.5180 H         1 LIG      0.160000
@<TRIPOS>BOND
     1    2   31 2   
     2    2    1 1   
     3    3    8 1   
     4    5   27 1   
     5    6    7 ar  
     6    8    2 1   
     7    9    4 3   
     8   10    7 ar  
     9   10    9 1   
    10   11   12 ar  
    11   11   14 ar  
    12   12   17 ar  
    13   13   24 1   
    14   14   15 ar  
    15   15   16 ar  
    16   17   25 1   
    17   17   16 ar  
    18   18   13 1   
    19   18   26 1   
    20   19   26 1   
    21   19   28 1   
    22   20   21 1   
    23   20   35 2   
    24   22   21 2   
    25   23   34 ar  
    26   23   27 ar  
    27   24   12 1   
    28   25   23 1   
    29   26   22 1   
    30   27   29 ar  
    31   28   20 1   
    32   29   32 ar  
    33   29   30 ar  
    34   30   10 ar  
    35   32    6 ar  
    36   33    8 1   
    37   33   32 ar  
    38   34   33 ar  
    39   36   19 2   
    40    1   37 1   
    41    1   38 1   
    42    1   39 1   
    43    3   40 1   
    44    3   41 1   
    45    3   42 1   
    46    5   43 1   
    47    5   44 1   
    48    5   45 1   
    49    6   46 1   
    50    7   47 1   
    51   11   48 1   
    52   13   49 1   
    53   13   50 1   
    54   14   51 1   
    55   15   52 1   
    56   16   53 1   
    57   18   54 1   
    58   18   55 1   
    59   21   56 1   
    60   22   57 1   
    61   28   58 1   
    62   30   59 1   
    63   34   60 1   
@<TRIPOS>SUBSTRUCTURE
     1 LIG         1 TEMP              0 ****  ****    0 ROOT
