@<TRIPOS>MOLECULE
9DI
   32    34     1     0     0
SMALL
bcc


@<TRIPOS>ATOM
      1 C           0.3430    0.0640   -0.4280 C.c       1 LIG     -0.184300
      2 C1         -0.1730    0.2940   -1.7210 C.c       1 LIG      0.133400
      3 N          -1.2660    0.9380   -2.1960 N.c       1 LIG     -0.577100
      4 C2         -1.5020    1.0030   -3.4740 C.d       1 LIG      0.466800
      5 N1         -0.6730    0.4410   -4.3910 N.        1 LIG     -0.486400
      6 C3          0.4410   -0.2130   -3.9990 C.        1 LIG      0.727100
      7 O           1.1880   -0.7200   -4.8190 O.3       1 LIG     -0.638500
      8 C4          0.7190   -0.2980   -2.6200 C.d       1 LIG     -0.236900
      9 N2          1.7280   -0.8680   -1.8790 N.a       1 LIG     -0.128100
     10 C5          1.4860   -0.6400   -0.5590 C.d       1 LIG     -0.078300
     11 C6          1.2820    0.0070    4.1380 C.3       1 LIG      0.121400
     12 O1          2.0800    1.1680    4.3810 O.h       1 LIG     -0.606800
     13 C7          0.1810    0.3480    3.1320 C.3       1 LIG      0.056100
     14 O2          0.7510    0.7120    1.8570 O.2       1 LIG     -0.426600
     15 C8         -0.2740    0.5200    0.8680 C.3       1 LIG      0.194400
     16 C9         -1.2300   -0.5620    1.4050 C.3       1 LIG      0.091100
     17 O3         -2.5590   -0.0460    1.5140 O.h       1 LIG     -0.583800
     18 C10        -0.6670   -0.9070    2.8070 C.3       1 LIG      0.095100
     19 O4         -1.7240   -1.0740    3.7540 O.h       1 LIG     -0.582800
     20 H          -2.3460    1.4980   -3.8010 H         1 LIG      0.054800
     21 H1         -0.8860    0.5110   -5.3500 H         1 LIG      0.339500
     22 H2          2.4990   -1.3600   -2.2440 H         1 LIG      0.319700
     23 H3          2.0840   -0.9570    0.2200 H         1 LIG      0.210000
     24 H4          0.8390   -0.3200    5.0550 H         1 LIG      0.051700
     25 H5          1.8980   -0.7730    3.7430 H         1 LIG      0.051700
     26 H6          1.5210    1.8750    4.7390 H         1 LIG      0.415000
     27 H7         -0.3920    1.1370    3.5720 H         1 LIG      0.076700
     28 H8         -0.8000    1.4330    0.6830 H         1 LIG      0.093700
     29 H9         -1.2850   -1.4160    0.7630 H         1 LIG      0.119700
     30 H10        -2.5570    0.7340    2.0910 H         1 LIG      0.405000
     31 H11        -0.1120   -1.8210    2.8390 H         1 LIG      0.091700
     32 H12        -2.2700   -0.2720    3.7740 H         1 LIG      0.416000
@<TRIPOS>BOND
     1    1    2 ar  
     2    1   10 ar  
     3    1   15 1   
     4    2    3 1   
     5    2    8 ar  
     6    3    4 2   
     7    4    5 1   
     8    5    6 1   
     9    6    7 2   
    10    6    8 1   
    11    8    9 ar  
    12    9   10 ar  
    13   11   12 1   
    14   11   13 1   
    15   13   14 1   
    16   13   18 1   
    17   14   15 1   
    18   15   16 1   
    19   16   17 1   
    20   16   18 1   
    21   18   19 1   
    22    4   20 1   
    23    5   21 1   
    24    9   22 1   
    25   10   23 1   
    26   11   24 1   
    27   11   25 1   
    28   12   26 1   
    29   13   27 1   
    30   15   28 1   
    31   16   29 1   
    32   17   30 1   
    33   18   31 1   
    34   19   32 1   
@<TRIPOS>SUBSTRUCTURE
     1 LIG         1 TEMP              0 ****  ****    0 ROOT
