@<TRIPOS>MOLECULE
3NG
   36    39     1     0     0
SMALL
bcc


@<TRIPOS>ATOM
      1 C          -1.4700    0.2730    0.0170 C.a       1 LIG      0.380600
      2 C1         -2.4110   -0.7810    0.0670 C.a       1 LIG     -0.145300
      3 C2         -3.7780   -0.5020    0.1480 C.a       1 LIG     -0.153000
      4 C3         -4.2120    0.7890    0.1780 C.a       1 LIG     -0.082000
      5 C4         -3.2940    1.8490    0.1290 C.a       1 LIG     -0.116600
      6 C5         -1.9310    1.5960    0.0550 C.a       1 LIG     -0.144300
      7 C6         -0.5200   -2.3590   -0.0490 C.a       1 LIG     -0.128300
      8 C7         -1.9190   -2.1610    0.0330 C.a       1 LIG     -0.095300
      9 N          -0.1510    0.0230   -0.0600 N.b       1 LIG     -0.666000
     10 C8          0.3540   -1.1870   -0.0940 C.a       1 LIG      0.590200
     11 C9         -0.9380   -4.6990   -0.0330 C.a       1 LIG      0.355200
     12 N1         -2.2400   -4.4830    0.0430 N.b       1 LIG     -0.668000
     13 C10        -2.7580   -3.2730    0.0770 C.a       1 LIG      0.402200
     14 C11        -0.0380   -3.6690   -0.0820 C.a       1 LIG     -0.211300
     15 N2          1.7230   -1.3570   -0.1740 N.h       1 LIG     -0.710300
     16 C12         2.5570   -0.2460   -0.3350 C.a       1 LIG      0.160600
     17 C13         3.8210   -0.2350    0.2400 C.a       1 LIG     -0.187000
     18 C14         4.6420    0.8640    0.0780 C.a       1 LIG      0.042400
     19 C15         4.2060    1.9530   -0.6560 C.a       1 LIG     -0.158000
     20 C16         2.9480    1.9450   -1.2300 C.a       1 LIG     -0.100000
     21 C17         2.1240    0.8460   -1.0760 C.a       1 LIG     -0.123000
     22 Cl          6.2230    0.8790    0.7960 C.l       1 LIG     -0.121400
     23 C18        -3.7810    3.2430    0.1620 C.        1 LIG      0.909200
     24 O          -2.9900    4.1640    0.1190 O.3       1 LIG     -0.818300
     25 O1         -5.1020    3.4940    0.2390 O.3       1 LIG     -0.818300
     26 H          -4.4600   -1.2760    0.1850 H         1 LIG      0.114000
     27 H1         -5.2230    0.9890    0.2370 H         1 LIG      0.164000
     28 H2         -1.2600    2.3790    0.0280 H         1 LIG      0.175000
     29 H3         -0.5910   -5.6710   -0.0560 H         1 LIG      0.011100
     30 H4         -3.7810   -3.1490    0.1360 H         1 LIG      0.026100
     31 H5          0.9750   -3.8570   -0.1420 H         1 LIG      0.141000
     32 H6          2.1110   -2.2600   -0.1180 H         1 LIG      0.401800
     33 H7          4.1470   -1.0470    0.7880 H         1 LIG      0.138000
     34 H8          4.8210    2.7730   -0.7750 H         1 LIG      0.140000
     35 H9          2.6240    2.7600   -1.7740 H         1 LIG      0.137000
     36 H10         1.1880    0.8370   -1.5110 H         1 LIG      0.160000
@<TRIPOS>BOND
     1    1    2 ar  
     2    1    9 ar  
     3    1    6 ar  
     4    2    3 ar  
     5    3    4 ar  
     6    4    5 ar  
     7    5    6 ar  
     8    5   23 1   
     9    7    8 ar  
    10    8    2 ar  
    11    8   13 ar  
    12   10    7 ar  
    13   10    9 ar  
    14   11   12 ar  
    15   12   13 ar  
    16   14    7 ar  
    17   14   11 ar  
    18   15   10 1   
    19   16   15 1   
    20   16   17 ar  
    21   18   17 ar  
    22   18   22 1   
    23   19   18 ar  
    24   20   19 ar  
    25   20   21 ar  
    26   21   16 ar  
    27   23   25 1   
    28   24   23 1   
    29    3   26 1   
    30    4   27 1   
    31    6   28 1   
    32   11   29 1   
    33   13   30 1   
    34   14   31 1   
    35   15   32 1   
    36   17   33 1   
    37   19   34 1   
    38   20   35 1   
    39   21   36 1   
@<TRIPOS>SUBSTRUCTURE
     1 LIG         1 TEMP              0 ****  ****    0 ROOT
