@<TRIPOS>MOLECULE
DAL
   13    12     1     0     0
SMALL
bcc


@<TRIPOS>ATOM
      1 N          -1.5640   -0.9920    0.1010 n4        1 ALA     -0.839600
      2 CA         -0.7240    0.1760    0.4020 c3        1 ALA     -0.075500
      3 CB         -1.2050    1.3740   -0.4200 c3        1 ALA     -0.106100
      4 C           0.7090   -0.1320    0.0510 c         1 ALA      0.936600
      5 O           1.0010   -1.2130   -0.4030 o         1 ALA     -0.755300
      6 OXT         1.6600    0.7950    0.2430 o         1 ALA     -0.755300
      7 H1         -2.5340   -0.7840    0.3390 hn        1 ALA      0.442467
      8 H2         -1.2440   -1.7910    0.6480 hn        1 ALA      0.442467
      9 H3         -1.4970   -1.2120   -0.8930 hn        1 ALA      0.442467
     10 HA         -0.7930    0.4070    1.4440 hx        1 ALA      0.088700
     11 HB1        -1.1350    1.1420   -1.4620 hc        1 ALA      0.059367
     12 HB2        -0.5940    2.2250   -0.2020 hc        1 ALA      0.059367
     13 HB3        -2.2220    1.5930   -0.1700 hc        1 ALA      0.059367
@<TRIPOS>BOND
     1    1    2 1   
     2    2    3 1   
     3    2    4 1   
     4    4    5 1   
     5    4    6 1   
     6    1    7 1   
     7    1    8 1   
     8    1    9 1   
     9    2   10 1   
    10    3   11 1   
    11    3   12 1   
    12    3   13 1   
@<TRIPOS>SUBSTRUCTURE
     1 ALA         1 TEMP              0 ****  ****    0 ROOT
