@<TRIPOS>MOLECULE
GYP
   27    27     1     0     0
SMALL
bcc


@<TRIPOS>ATOM
      1 C           1.3570   -0.5090   -0.3630 C.3       1 LIG      0.296900
      2 C1          0.4480   -0.6430   -1.5860 C.3       1 LIG      0.104100
      3 C2         -0.7800    0.2500   -1.3970 C.3       1 LIG      0.075100
      4 C3         -1.4370   -0.0960   -0.0570 C.3       1 LIG      0.088100
      5 C4         -0.3860   -0.0030    1.0510 C.3       1 LIG      0.071100
      6 C5         -1.0410   -0.3160    2.3980 C.3       1 LIG      0.139400
      7 C6          2.5920    0.9160    0.9420 C.3       1 LIG      0.121700
      8 O           1.7460    0.8560   -0.2070 O.2       1 LIG     -0.458600
      9 O1          1.1590   -0.2380   -2.7570 O.h       1 LIG     -0.573800
     10 O2         -1.7100    0.0250   -2.4590 O.h       1 LIG     -0.569800
     11 O3         -2.4970    0.8230    0.2100 O.h       1 LIG     -0.577800
     12 O4          0.6600   -0.9400    0.8040 O.2       1 LIG     -0.444600
     13 O5         -0.0630   -0.2230    3.4360 O.h       1 LIG     -0.595800
     14 H           2.2270   -1.1170   -0.5000 H         1 LIG      0.091700
     15 H1          0.1390   -1.6620   -1.6960 H         1 LIG      0.088700
     16 H2         -0.4850    1.2790   -1.4060 H         1 LIG      0.093700
     17 H3         -1.8350   -1.0880   -0.0960 H         1 LIG      0.083700
     18 H4          0.0230    0.9860    1.0690 H         1 LIG      0.068700
     19 H5         -1.4450   -1.3060    2.3770 H         1 LIG      0.063700
     20 H6         -1.8270    0.3860    2.5840 H         1 LIG      0.063700
     21 H7          2.9100    1.9260    1.0990 H         1 LIG      0.042367
     22 H8          3.4480    0.2930    0.7880 H         1 LIG      0.042367
     23 H9          2.0520    0.5750    1.8000 H         1 LIG      0.042367
     24 H10         1.4410    0.6850   -2.6610 H         1 LIG      0.420000
     25 H11        -1.9820   -0.9060   -2.4580 H         1 LIG      0.406000
     26 H12        -2.1420    1.7250    0.2460 H         1 LIG      0.410000
     27 H13         0.6490   -0.8590    3.2670 H         1 LIG      0.408000
@<TRIPOS>BOND
     1    1    2 1   
     2    1    8 1   
     3    1   12 1   
     4    2    3 1   
     5    2    9 1   
     6    3    4 1   
     7    3   10 1   
     8    4    5 1   
     9    4   11 1   
    10    5    6 1   
    11    5   12 1   
    12    6   13 1   
    13    7    8 1   
    14    1   14 1   
    15    2   15 1   
    16    3   16 1   
    17    4   17 1   
    18    5   18 1   
    19    6   19 1   
    20    6   20 1   
    21    7   21 1   
    22    7   22 1   
    23    7   23 1   
    24    9   24 1   
    25   10   25 1   
    26   11   26 1   
    27   13   27 1   
@<TRIPOS>SUBSTRUCTURE
     1 LIG         1 TEMP              0 ****  ****    0 ROOT
