@<TRIPOS>MOLECULE
EXQ
   47    50     1     0     0
SMALL
bcc


@<TRIPOS>ATOM
      1 N          -0.8560    1.7480   -0.2310 na        1 LIG     -0.059300
      2 C          -2.1310    1.2150   -0.3040 ca        1 LIG      0.050800
      3 C1         -2.0270   -0.1840   -0.2950 cp        1 LIG     -0.077000
      4 C2         -3.1760   -0.9700   -0.3600 ca        1 LIG     -0.041000
      5 C3         -4.4140   -0.3670   -0.4330 ca        1 LIG     -0.257300
      6 C4         -4.5180    1.0150   -0.4420 ca        1 LIG     -0.072000
      7 C5         -3.3900    1.8040   -0.3780 ca        1 LIG     -0.159000
      8 C6         -5.6580   -1.2150   -0.5030 c3        1 LIG      0.191100
      9 C7          0.0850    0.7350   -0.1810 ca        1 LIG      0.004800
     10 C8         -0.5890   -0.4970   -0.2110 cp        1 LIG     -0.097000
     11 C9          0.1280   -1.6920   -0.1700 ca        1 LIG     -0.070000
     12 C10         1.4910   -1.6700   -0.1010 ca        1 LIG     -0.136000
     13 C11         2.1760   -0.4500   -0.0700 ca        1 LIG      0.061000
     14 C12         1.4710    0.7510   -0.1020 ca        1 LIG     -0.152000
     15 C13        -0.5470    3.1800   -0.2170 c3        1 LIG      0.039300
     16 C14         3.6510   -0.4360    0.0050 cc        1 LIG     -0.101100
     17 C15         4.4400   -1.5290    0.0440 cd        1 LIG     -0.123000
     18 C16         5.7920   -1.2620    0.1080 cd        1 LIG     -0.101300
     19 C17         6.1130    0.0340    0.1210 cc        1 LIG     -0.157100
     20 S           4.6520    1.0100    0.0510 ss        1 LIG      0.038200
     21 C18         6.8300   -2.3540    0.1590 c3        1 LIG     -0.036800
     22 C19        -0.5220    3.6820    1.2290 c3        1 LIG     -0.124100
     23 N1         -6.1420   -1.4870    0.8570 n4        1 LIG     -0.769000
     24 C20        -7.3550   -2.3130    0.7890 c3        1 LIG      0.076100
     25 H          -3.1010   -1.9990   -0.3530 ha        1 LIG      0.137000
     26 H1         -5.4490    1.4570   -0.4970 ha        1 LIG      0.132000
     27 H2         -3.4790    2.8320   -0.3850 ha        1 LIG      0.157000
     28 H3         -5.4330   -2.1390   -0.9930 hx        1 LIG      0.101700
     29 H4         -6.4140   -0.6950   -1.0530 hx        1 LIG      0.101700
     30 H5         -0.3720   -2.5940   -0.1920 ha        1 LIG      0.136000
     31 H6          2.0180   -2.5570   -0.0720 ha        1 LIG      0.150000
     32 H7          1.9770    1.6500   -0.0670 ha        1 LIG      0.150000
     33 H8         -1.2960    3.7120   -0.7660 h1        1 LIG      0.068700
     34 H9          0.4090    3.3430   -0.6680 h1        1 LIG      0.068700
     35 H10         4.0620   -2.4890    0.0270 ha        1 LIG      0.156000
     36 H11         7.0740    0.4070    0.1660 h4        1 LIG      0.181000
     37 H12         6.3460   -3.3080    0.1380 hc        1 LIG      0.050033
     38 H13         7.3990   -2.2630    1.0600 hc        1 LIG      0.050033
     39 H14         7.4820   -2.2660   -0.6850 hc        1 LIG      0.050033
     40 H15        -1.4790    3.5190    1.6800 hc        1 LIG      0.054367
     41 H16        -0.2960    4.7280    1.2400 hc        1 LIG      0.054367
     42 H17         0.2270    3.1500    1.7780 hc        1 LIG      0.054367
     43 H18        -6.3560   -0.6060    1.3240 hn        1 LIG      0.450300
     44 H19        -5.4220   -1.9830    1.3810 hn        1 LIG      0.450300
     45 H20        -8.1110   -1.7920    0.2390 hx        1 LIG      0.105033
     46 H21        -7.7080   -2.5110    1.7800 hx        1 LIG      0.105033
     47 H22        -7.1300   -3.2370    0.2990 hx        1 LIG      0.105033
@<TRIPOS>BOND
     1    1    2 1   
     2    1   15 1   
     3    2    7 ar  
     4    3    4 ar  
     5    3    2 ar  
     6    4    5 ar  
     7    5    8 1   
     8    5    6 ar  
     9    7    6 ar  
    10    8   23 1   
    11    9    1 1   
    12   10    9 ar  
    13   10    3 1   
    14   11   10 ar  
    15   12   13 ar  
    16   12   11 ar  
    17   13   14 ar  
    18   14    9 ar  
    19   15   22 1   
    20   16   20 ar  
    21   16   13 1   
    22   17   16 ar  
    23   18   17 ar  
    24   18   19 ar  
    25   19   20 ar  
    26   21   18 1   
    27   23   24 1   
    28    4   25 1   
    29    6   26 1   
    30    7   27 1   
    31    8   28 1   
    32    8   29 1   
    33   11   30 1   
    34   12   31 1   
    35   14   32 1   
    36   15   33 1   
    37   15   34 1   
    38   17   35 1   
    39   19   36 1   
    40   21   37 1   
    41   21   38 1   
    42   21   39 1   
    43   22   40 1   
    44   22   41 1   
    45   22   42 1   
    46   23   43 1   
    47   23   44 1   
    48   24   45 1   
    49   24   46 1   
    50   24   47 1   
@<TRIPOS>SUBSTRUCTURE
     1 LIG         1 TEMP              0 ****  ****    0 ROOT
