@<TRIPOS>MOLECULE
MA6
   41    43     1     0     0
SMALL
bcc


@<TRIPOS>ATOM
      1 C          -1.2740   -1.2220    4.5590 C.a       1 LIG      0.616900
      2 C1         -0.4110   -0.3310    2.6240 C.a       1 LIG      0.413800
      3 C2          0.6100    0.2770    3.3720 C.a       1 LIG     -0.144200
      4 P           1.2910   -0.1300   -5.0980 P.5       1 LIG      1.345900
      5 O           2.4520   -1.1350   -5.5830 O.3       1 LIG     -0.924167
      6 O1          0.1880    0.0170   -6.2620 O.3       1 LIG     -0.924167
      7 O2          1.8780    1.1960   -4.8030 O.3       1 LIG     -0.924167
      8 O3          0.5940   -0.7160   -3.7700 O.2       1 LIG     -0.568200
      9 C3         -0.4200    0.2150   -3.3910 C.3       1 LIG      0.224400
     10 C4         -1.1250   -0.2840   -2.1290 C.3       1 LIG      0.062100
     11 O4         -0.1870   -0.3850   -1.0350 O.2       1 LIG     -0.436600
     12 C5         -0.9940   -0.3700    0.1610 C.3       1 LIG      0.223800
     13 N          -0.1850    0.0210    1.3170 N.a       1 LIG     -0.275000
     14 N1         -1.3250   -1.0630    3.2540 N.b       1 LIG     -0.705000
     15 N2         -0.3300   -0.6750    5.3030 N.b       1 LIG     -0.792000
     16 C6          0.6260    0.0720    4.7620 C.a       1 LIG      0.661200
     17 N3          1.6110    0.6410    5.5500 N.h       1 LIG     -0.724300
     18 C7          1.3290    0.2380    6.9340 C.3       1 LIG      0.178100
     19 C8          2.8770   -0.0000    5.1720 C.3       1 LIG      0.178100
     20 N4          1.3970    0.9490    2.4990 N.c       1 LIG     -0.598100
     21 C9          0.9300    0.8030    1.2930 C.d       1 LIG      0.471700
     22 C10        -2.0900    0.6830   -0.1100 C.3       1 LIG      0.109100
     23 O5         -3.3400    0.2710    0.4440 O.h       1 LIG     -0.620800
     24 C11        -2.1760    0.7430   -1.6540 C.3       1 LIG      0.075100
     25 O6         -3.4810    0.3670   -2.0980 O.h       1 LIG     -0.667800
     26 H          -1.9990   -1.7960    5.0180 H         1 LIG      0.022100
     27 H1         -1.1320    0.3090   -4.1840 H         1 LIG     -0.000800
     28 H2          0.0260    1.1680   -3.1970 H         1 LIG     -0.000800
     29 H3         -1.5650   -1.2280   -2.3740 H         1 LIG      0.049700
     30 H4         -1.4060   -1.3330    0.3810 H         1 LIG      0.092700
     31 H5          0.4110    0.6830    7.2550 H         1 LIG      0.033700
     32 H6          2.1250    0.5650    7.5700 H         1 LIG      0.033700
     33 H7          1.2460   -0.8280    6.9850 H         1 LIG      0.033700
     34 H8          3.1250    0.2660    4.1660 H         1 LIG      0.033700
     35 H9          2.7750   -1.0630    5.2450 H         1 LIG      0.033700
     36 H10         3.6540    0.3300    5.8300 H         1 LIG      0.033700
     37 H11         1.3430    1.2180    0.4440 H         1 LIG      0.215800
     38 H12        -1.8650    1.6310    0.3320 H         1 LIG      0.076700
     39 H13        -3.5900   -0.5900    0.0730 H         1 LIG      0.423000
     40 H14        -1.9960    1.7250   -2.0390 H         1 LIG      0.166700
     41 H15        -3.6900   -0.5220   -1.7710 H         1 LIG      0.496000
@<TRIPOS>BOND
     1    1   14 ar  
     2    1   15 ar  
     3    2    3 ar  
     4    2   13 1   
     5    2   14 ar  
     6    3   16 ar  
     7    3   20 1   
     8    4    5 1   
     9    4    6 1   
    10    4    7 1   
    11    4    8 1   
    12    8    9 1   
    13    9   10 1   
    14   10   11 1   
    15   10   24 1   
    16   11   12 1   
    17   12   13 1   
    18   12   22 1   
    19   13   21 1   
    20   15   16 ar  
    21   16   17 1   
    22   17   18 1   
    23   17   19 1   
    24   20   21 2   
    25   22   23 1   
    26   22   24 1   
    27   24   25 1   
    28    1   26 1   
    29    9   27 1   
    30    9   28 1   
    31   10   29 1   
    32   12   30 1   
    33   18   31 1   
    34   18   32 1   
    35   18   33 1   
    36   19   34 1   
    37   19   35 1   
    38   19   36 1   
    39   21   37 1   
    40   22   38 1   
    41   23   39 1   
    42   24   40 1   
    43   25   41 1   
@<TRIPOS>SUBSTRUCTURE
     1 LIG         1 TEMP              0 ****  ****    0 ROOT
