@<TRIPOS>MOLECULE
HGA
   21    20     1     0     0
SMALL
bcc


@<TRIPOS>ATOM
      1 N           1.8520   -0.1700    1.6740 N.4       1 LIG     -0.820600
      2 CA          0.5190    0.4440    1.6310 C.3       1 LIG     -0.078500
      3 C          -0.2060    0.0020    0.3590 C.3       1 LIG     -0.086400
      4 C1          0.5970    0.4430   -0.8650 C.3       1 LIG     -0.167400
      5 C2         -0.1160    0.0070   -2.1180 C.        1 LIG      0.610100
      6 O          -1.1650   -0.5960   -2.0400 O.3       1 LIG     -0.638100
      7 N1          0.4100    0.2880   -3.3270 N.        1 LIG     -0.351400
      8 O1         -0.2610   -0.1210   -4.5040 O.h       1 LIG     -0.425100
      9 C3         -0.2730    0.0110    2.8380 C.        1 LIG      0.937600
     10 O2         -0.0670   -1.0690    3.3390 O.3       1 LIG     -0.758300
     11 OXT        -1.2060    0.8240    3.3560 O.3       1 LIG     -0.758300
     12 H1          2.3880    0.1230    0.8570 H         1 LIG      0.449467
     13 H2          1.7590   -1.1860    1.6730 H         1 LIG      0.449467
     14 H3          2.3360    0.1260    2.5220 H         1 LIG      0.449467
     15 HA          0.6170    1.5100    1.6330 H         1 LIG      0.085700
     16 H          -1.1770    0.4500    0.3280 H         1 LIG      0.095200
     17 H4         -0.3040   -1.0630    0.3560 H         1 LIG      0.095200
     18 H5          1.5690   -0.0040   -0.8340 H         1 LIG      0.079700
     19 H6          0.6940    1.5090   -0.8630 H         1 LIG      0.079700
     20 H7          1.2620    0.7780   -3.3910 H         1 LIG      0.315500
     21 H8         -1.0770   -0.5880   -4.2650 H         1 LIG      0.436000
@<TRIPOS>BOND
     1    1    2 1   
     2    2    3 1   
     3    2    9 1   
     4    3    4 1   
     5    4    5 1   
     6    5    6 2   
     7    5    7 1   
     8    7    8 1   
     9    9   10 1   
    10    9   11 1   
    11    1   12 1   
    12    1   13 1   
    13    1   14 1   
    14    2   15 1   
    15    3   16 1   
    16    3   17 1   
    17    4   18 1   
    18    4   19 1   
    19    7   20 1   
    20    8   21 1   
@<TRIPOS>SUBSTRUCTURE
     1 LIG         1 TEMP              0 ****  ****    0 ROOT
