@<TRIPOS>MOLECULE
NIM
   33    34     1     0     0
SMALL
bcc


@<TRIPOS>ATOM
      1 O          -1.6740    4.1130    0.1360 o         1 LIG     -0.206000
      2 N          -1.9290    2.9220    0.1490 no        1 LIG      0.319200
      3 O1         -3.0770    2.5470    0.3080 o         1 LIG     -0.206000
      4 C          -0.8440    1.9310   -0.0290 ca        1 LIG     -0.198200
      5 C1          0.4580    2.3590   -0.2100 ca        1 LIG     -0.040000
      6 C2          1.4750    1.4380   -0.3760 ca        1 LIG     -0.198000
      7 C3          1.1900    0.0810   -0.3620 ca        1 LIG      0.218600
      8 N1          2.2180   -0.8540   -0.5300 nh        1 LIG     -0.762500
      9 S           3.7350   -0.5290    0.0510 s6        1 LIG      1.470900
     10 O2          4.4410   -1.7310   -0.2250 o         1 LIG     -0.640300
     11 O3          4.0590    0.7000   -0.5840 o         1 LIG     -0.640300
     12 C4          3.4580   -0.3100    1.8300 c3        1 LIG     -0.378300
     13 C5         -1.1360    0.5800   -0.0140 ca        1 LIG     -0.063000
     14 C6         -0.1230   -0.3500   -0.1860 ca        1 LIG      0.036100
     15 O4         -0.4080   -1.6790   -0.1710 os        1 LIG     -0.257200
     16 C7         -1.7600   -1.7900   -0.0910 ca        1 LIG      0.089100
     17 C8         -2.5400   -1.6170   -1.2250 ca        1 LIG     -0.155000
     18 C9         -3.9150   -1.7300   -1.1410 ca        1 LIG     -0.102500
     19 C10        -4.5130   -2.0150    0.0730 ca        1 LIG     -0.142000
     20 C11        -3.7380   -2.1880    1.2050 ca        1 LIG     -0.102500
     21 C12        -2.3630   -2.0820    1.1250 ca        1 LIG     -0.155000
     22 H           0.6710    3.3690   -0.2210 ha        1 LIG      0.179000
     23 H1          2.4460    1.7600   -0.5100 ha        1 LIG      0.186000
     24 H2          2.0400   -1.7040   -0.9930 hn        1 LIG      0.473800
     25 H3          3.2170   -1.2540    2.2720 h1        1 LIG      0.123367
     26 H4          2.6480    0.3730    1.9840 h1        1 LIG      0.123367
     27 H5          4.3450    0.0810    2.2840 h1        1 LIG      0.123367
     28 H6         -2.1080    0.2640    0.1250 ha        1 LIG      0.188000
     29 H7         -2.0940   -1.4040   -2.1310 ha        1 LIG      0.148500
     30 H8         -4.4960   -1.6020   -1.9840 ha        1 LIG      0.140500
     31 H9         -5.5400   -2.0990    0.1340 ha        1 LIG      0.139000
     32 H10        -4.1870   -2.3970    2.1100 ha        1 LIG      0.140500
     33 H11        -1.7840   -2.2200    1.9680 ha        1 LIG      0.148500
@<TRIPOS>BOND
     1    1    2 1   
     2    2    3 1   
     3    2    4 1   
     4    4    5 ar  
     5    4   13 ar  
     6    5    6 ar  
     7    6    7 ar  
     8    7    8 1   
     9    7   14 ar  
    10    8    9 1   
    11    9   10 2   
    12    9   11 2   
    13    9   12 1   
    14   13   14 ar  
    15   14   15 1   
    16   15   16 1   
    17   16   17 ar  
    18   16   21 ar  
    19   17   18 ar  
    20   18   19 ar  
    21   19   20 ar  
    22   20   21 ar  
    23    5   22 1   
    24    6   23 1   
    25    8   24 1   
    26   12   25 1   
    27   12   26 1   
    28   12   27 1   
    29   13   28 1   
    30   17   29 1   
    31   18   30 1   
    32   19   31 1   
    33   20   32 1   
    34   21   33 1   
@<TRIPOS>SUBSTRUCTURE
     1 LIG         1 TEMP              0 ****  ****    0 ROOT
