@<TRIPOS>MOLECULE
DYH
   41    42     1     0     0
SMALL
bcc


@<TRIPOS>ATOM
      1 C           3.5140    3.1840   -0.1280 c3        1 LIG      0.095100
      2 N           2.3240    2.3240   -0.0860 n4        1 LIG     -0.767000
      3 C1          2.6420    1.0150    0.5000 c3        1 LIG      0.068500
      4 C2          3.1910    0.0930   -0.5920 c3        1 LIG      0.106100
      5 O           2.2390   -0.0210   -1.6510 oh        1 LIG     -0.598800
      6 C3          3.4430   -1.2870    0.0280 c3        1 LIG      0.096400
      7 O1          2.2060   -1.7980    0.5190 os        1 LIG     -0.391600
      8 C4          1.5940   -1.0370    1.5610 c3        1 LIG      0.122100
      9 C5          0.1110   -1.5100    1.6470 c3        1 LIG     -0.107400
     10 C6          1.3880    0.4240    1.1140 c3        1 LIG      0.103100
     11 O2          0.2900    0.4020    0.2000 os        1 LIG     -0.414600
     12 C7         -0.5440   -0.7310    0.4850 c3        1 LIG      0.024800
     13 C8         -0.6420   -1.6130   -0.7330 c         1 LIG      0.847600
     14 O3         -0.6920   -1.0650   -1.9570 o         1 LIG     -0.830300
     15 O4         -0.6740   -2.8150   -0.6070 o         1 LIG     -0.830300
     16 C9         -1.9390   -0.2570    0.8990 c3        1 LIG     -0.071400
     17 CA         -2.6290    0.4030   -0.2970 c3        1 LIG     -0.059500
     18 C10        -4.0460    0.7590    0.0740 c         1 LIG      0.934600
     19 O5         -4.3220    1.8940    0.3840 o         1 LIG     -0.769800
     20 OXT        -5.0000   -0.1850    0.0600 o         1 LIG     -0.769800
     21 N1         -1.9000    1.6230   -0.6700 n4        1 LIG     -0.833600
     22 H           3.2560    4.1290   -0.5580 hx        1 LIG      0.090367
     23 H4          4.2710    2.7160   -0.7220 hx        1 LIG      0.090367
     24 H5          3.8820    3.3330    0.8660 hx        1 LIG      0.090367
     25 H6          1.9760    2.1890   -1.0350 hn        1 LIG      0.501800
     26 H7          1.6160    2.7760    0.4930 hn        1 LIG      0.501800
     27 H8          3.3820    1.1240    1.2650 hx        1 LIG      0.081700
     28 H9          4.1010    0.4920   -0.9900 h1        1 LIG      0.081700
     29 H10         1.4090   -0.3820   -1.3020 ho        1 LIG      0.467000
     30 H11         4.1410   -1.1980    0.8340 h1        1 LIG      0.074200
     31 H12         3.8460   -1.9500   -0.7090 h1        1 LIG      0.074200
     32 H13         2.1930   -1.1390    2.4420 h1        1 LIG      0.072700
     33 H14        -0.3270   -1.2460    2.5870 hc        1 LIG      0.096200
     34 H15        -0.0080   -2.5710    1.5750 hc        1 LIG      0.096200
     35 H16         1.1750    1.0580    1.9490 h1        1 LIG      0.086700
     36 H17        -1.8530    0.4510    1.6970 hc        1 LIG      0.094700
     37 H18        -2.5180   -1.0950    1.2270 hc        1 LIG      0.094700
     38 HA         -2.6360   -0.2760   -1.1240 hx        1 LIG      0.085700
     39 H1         -1.8930    2.2700    0.1190 hn        1 LIG      0.455133
     40 H2         -2.3600    2.0630   -1.4670 hn        1 LIG      0.455133
     41 H3         -0.9410    1.3830   -0.9210 hn        1 LIG      0.455133
@<TRIPOS>BOND
     1    1    2 1   
     2    2    3 1   
     3    3    4 1   
     4    3   10 1   
     5    4    5 1   
     6    4    6 1   
     7    6    7 1   
     8    7    8 1   
     9    8    9 1   
    10    8   10 1   
    11    9   12 1   
    12   10   11 1   
    13   11   12 1   
    14   12   13 1   
    15   12   16 1   
    16   13   14 1   
    17   13   15 1   
    18   16   17 1   
    19   17   18 1   
    20   17   21 1   
    21   18   19 1   
    22   18   20 1   
    23    1   22 1   
    24    1   23 1   
    25    1   24 1   
    26    2   25 1   
    27    2   26 1   
    28    3   27 1   
    29    4   28 1   
    30    5   29 1   
    31    6   30 1   
    32    6   31 1   
    33    8   32 1   
    34    9   33 1   
    35    9   34 1   
    36   10   35 1   
    37   16   36 1   
    38   16   37 1   
    39   17   38 1   
    40   21   39 1   
    41   21   40 1   
    42   21   41 1   
@<TRIPOS>SUBSTRUCTURE
     1 LIG         1 TEMP              0 ****  ****    0 ROOT
