@<TRIPOS>MOLECULE
NTB
   17    16     1     0     0
SMALL
bcc


@<TRIPOS>ATOM
      1 N           0.8200    0.0000   -1.2180 N.4       1 LIG     -0.850600
      2 C          -0.0120    0.0000   -0.0080 C.3       1 LIG      0.152200
      3 C1         -0.9500    1.2080   -0.0340 C.3       1 LIG     -0.134100
      4 C2          0.8860    0.0780    1.2290 C.3       1 LIG     -0.134100
      5 C3         -0.8390   -1.2870    0.0420 C.3       1 LIG     -0.134100
      6 H           1.3710    0.8580   -1.2520 H         1 LIG      0.456800
      7 H1          0.2210   -0.0520   -2.0420 H         1 LIG      0.456800
      8 H2          1.4450   -0.8060   -1.2010 H         1 LIG      0.456800
      9 H3         -0.3720    2.1080   -0.0690 H         1 LIG      0.081033
     10 H4         -1.5560    1.2080    0.8480 H         1 LIG      0.081033
     11 H5         -1.5780    1.1540   -0.8990 H         1 LIG      0.081033
     12 H6          1.4640    0.9780    1.1940 H         1 LIG      0.081033
     13 H7          1.5420   -0.7670    1.2470 H         1 LIG      0.081033
     14 H8          0.2800    0.0780    2.1110 H         1 LIG      0.081033
     15 H9         -1.4670   -1.3410   -0.8230 H         1 LIG      0.081033
     16 H10        -1.4460   -1.2870    0.9230 H         1 LIG      0.081033
     17 H11        -0.1830   -2.1320    0.0600 H         1 LIG      0.081033
@<TRIPOS>BOND
     1    1    2 1   
     2    2    3 1   
     3    2    4 1   
     4    2    5 1   
     5    1    6 1   
     6    1    7 1   
     7    1    8 1   
     8    3    9 1   
     9    3   10 1   
    10    3   11 1   
    11    4   12 1   
    12    4   13 1   
    13    4   14 1   
    14    5   15 1   
    15    5   16 1   
    16    5   17 1   
@<TRIPOS>SUBSTRUCTURE
     1 LIG         1 TEMP              0 ****  ****    0 ROOT
