@<TRIPOS>MOLECULE
2CQ
   19    19     1     0     0
SMALL
bcc


@<TRIPOS>ATOM
      1 N           3.0520   -0.9630   -0.0030 N.h       1 LIG     -0.804200
      2 C           1.7160   -0.5440   -0.0020 C.a       1 LIG      0.092600
      3 C1          0.6930   -1.4810   -0.0000 C.a       1 LIG     -0.159000
      4 C2         -0.6250   -1.0660    0.0010 C.a       1 LIG     -0.066300
      5 C3         -1.7350   -2.0860    0.0040 C.3       1 LIG     -0.050800
      6 C4         -0.9290    0.2840   -0.0010 C.a       1 LIG      0.012400
      7 Cl         -2.5880    0.7980   -0.0010 C.l       1 LIG     -0.102400
      8 C5          0.0850    1.2250   -0.0030 C.a       1 LIG     -0.155000
      9 C6          1.4100    0.8170    0.0010 C.a       1 LIG      0.084600
     10 N1          2.4380    1.7670    0.0040 N.h       1 LIG     -0.802200
     11 H           3.7770   -0.2970   -0.0040 H         1 LIG      0.382300
     12 H1          3.2670   -1.9240   -0.0020 H         1 LIG      0.382300
     13 H2          0.9160   -2.4890    0.0010 H         1 LIG      0.134000
     14 H3         -1.3150   -3.0700    0.0050 H         1 LIG      0.048700
     15 H4         -2.3400   -1.9570   -0.8690 H         1 LIG      0.048700
     16 H5         -2.3380   -1.9540    0.8780 H         1 LIG      0.048700
     17 H6         -0.1450    2.2310   -0.0070 H         1 LIG      0.144000
     18 H7          3.3780    1.4750    0.0070 H         1 LIG      0.380800
     19 H8          2.2210    2.7270    0.0030 H         1 LIG      0.380800
@<TRIPOS>BOND
     1    1    2 1   
     2    2    9 ar  
     3    2    3 ar  
     4    3    4 ar  
     5    4    6 ar  
     6    4    5 1   
     7    6    7 1   
     8    8    6 ar  
     9    9    8 ar  
    10   10    9 1   
    11    1   11 1   
    12    1   12 1   
    13    3   13 1   
    14    5   14 1   
    15    5   15 1   
    16    5   16 1   
    17    8   17 1   
    18   10   18 1   
    19   10   19 1   
@<TRIPOS>SUBSTRUCTURE
     1 LIG         1 TEMP              0 ****  ****    0 ROOT
