@<TRIPOS>MOLECULE
1TY
   40    41     1     0     0
SMALL
bcc


@<TRIPOS>ATOM
      1 N           4.8840   -4.5560    0.6620 N.4       1 LIG     -0.837600
      2 CA          4.2370   -3.3500    0.1480 C.3       1 LIG     -0.030500
      3 C           3.8560   -2.4210    1.3050 C.3       1 LIG     -0.048200
      4 C1          5.2240   -2.7160   -0.8180 C.        1 LIG      0.923600
      5 O           6.4420   -2.7620   -0.7140 O.3       1 LIG     -0.791800
      6 C2          3.2020   -1.1610    0.8260 C.c       1 LIG     -0.146400
      7 C3          1.7310   -1.1950    0.6190 C.c       1 LIG      0.565500
      8 O1          1.0680   -2.2070    0.8280 O.3       1 LIG     -0.808300
      9 C4          1.0740    0.0420    0.1470 C.d       1 LIG     -0.543200
     10 C5          3.8860   -0.0360    0.5870 C.d       1 LIG     -0.261600
     11 C6          3.2320    1.2050    0.1150 C.d       1 LIG      0.417600
     12 N1          3.9030    2.2900   -0.1150 N.2       1 LIG     -0.572900
     13 C7          1.7630    1.1630   -0.0900 C.        1 LIG      0.514000
     14 O2          1.1220    2.3030   -0.5310 O.3       1 LIG     -0.623100
     15 C8          4.0010    6.4490    1.0490 C.a       1 LIG     -0.137500
     16 C9          4.4570    5.3990    0.2520 C.a       1 LIG     -0.120000
     17 C10         5.5290    4.6340    0.6840 C.a       1 LIG     -0.070300
     18 C11         6.1570    4.8930    1.8920 C.a       1 LIG     -0.120000
     19 C12         5.7010    5.9430    2.6890 C.a       1 LIG     -0.137500
     20 C13         4.6230    6.7210    2.2670 C.a       1 LIG     -0.142000
     21 C14         6.0220    3.4980   -0.1780 C.3       1 LIG     -0.026100
     22 C15         5.3310    2.1730    0.1300 C.3       1 LIG      0.106800
     23 OXT         4.5970   -2.0780   -1.8430 O.3       1 LIG     -0.791800
     24 H1          4.2600   -5.0230    1.3200 H         1 LIG      0.453133
     25 H2          5.7500   -4.3010    1.1370 H         1 LIG      0.453133
     26 H3          5.0940   -5.1860   -0.1130 H         1 LIG      0.453133
     27 HA          3.3220   -3.5660   -0.3630 H         1 LIG      0.076700
     28 H           4.7420   -2.1650    1.8480 H         1 LIG      0.084200
     29 H4          3.1560   -2.9390    1.9260 H         1 LIG      0.084200
     30 H5          0.0530    0.0400   -0.0040 H         1 LIG      0.136000
     31 H6          4.9070   -0.0340    0.7370 H         1 LIG      0.116000
     32 H7          3.2030    7.0250    0.7370 H         1 LIG      0.123000
     33 H8          4.0010    5.1940   -0.6510 H         1 LIG      0.144500
     34 H9          6.9550    4.3140    2.1990 H         1 LIG      0.144500
     35 H10         6.1610    6.1440    3.5910 H         1 LIG      0.123000
     36 H11         4.2860    7.4980    2.8560 H         1 LIG      0.118000
     37 H12         7.0730    3.3800   -0.0180 H         1 LIG      0.046700
     38 H13         5.7990    3.7470   -1.1940 H         1 LIG      0.046700
     39 H14         5.7370    1.4070   -0.4970 H         1 LIG      0.039200
     40 H15         5.4920    1.9230    1.1580 H         1 LIG      0.039200
@<TRIPOS>BOND
     1    1    2 1   
     2    2    3 1   
     3    2    4 1   
     4    3    6 1   
     5    4    5 1   
     6    4   23 1   
     7    6    7 1   
     8    6   10 2   
     9    7    8 1   
    10    7    9 2   
    11    9   13 1   
    12   10   11 1   
    13   11   12 2   
    14   11   13 1   
    15   12   22 1   
    16   13   14 2   
    17   15   16 ar  
    18   15   20 ar  
    19   16   17 ar  
    20   17   18 ar  
    21   17   21 1   
    22   18   19 ar  
    23   19   20 ar  
    24   21   22 1   
    25    1   24 1   
    26    1   25 1   
    27    1   26 1   
    28    2   27 1   
    29    3   28 1   
    30    3   29 1   
    31    9   30 1   
    32   10   31 1   
    33   15   32 1   
    34   16   33 1   
    35   18   34 1   
    36   19   35 1   
    37   20   36 1   
    38   21   37 1   
    39   21   38 1   
    40   22   39 1   
    41   22   40 1   
@<TRIPOS>SUBSTRUCTURE
     1 LIG         1 TEMP              0 ****  ****    0 ROOT
