@<TRIPOS>MOLECULE
5BS
   44    47     1     0     0
SMALL
bcc


@<TRIPOS>ATOM
      1 C          -2.1370    0.6480   -0.0230 C.a       1 LIG      0.671200
      2 C1         -1.9670   -0.7370   -0.1280 C.a       1 LIG     -0.203000
      3 C2         -0.6870   -1.2480   -0.2170 C.a       1 LIG      0.438200
      4 N           0.3410   -0.4060   -0.1990 N.b       1 LIG     -0.721000
      5 N1         -1.0630    1.4280   -0.0120 N.b       1 LIG     -0.775000
      6 C3         -2.4620   -3.1130   -0.2760 C.3       1 LIG      0.079300
      7 N2         -2.9510   -1.7370   -0.1590 N.        1 LIG     -0.356000
      8 C4         -4.2880   -1.5930   -0.0930 C.        1 LIG      0.760100
      9 O          -4.9240   -2.6300   -0.1410 O.3       1 LIG     -0.634500
     10 C5         -5.0660   -0.4100    0.0230 C.c       1 LIG     -0.225700
     11 S          -6.8250   -0.4540    0.0930 S.3       1 LIG      0.182200
     12 C6         -6.9170    1.2430    0.2190 C.c       1 LIG     -0.177100
     13 C7         -5.7050    1.7920    0.2080 C.d       1 LIG     -0.186000
     14 C8         -4.6420    0.9030    0.1000 C.d       1 LIG      0.126600
     15 N3         -3.3150    1.3710    0.0710 N.a       1 LIG     -0.592700
     16 C9         -3.1560    2.8250    0.1700 C.3       1 LIG      0.179100
     17 C10         0.1500    0.8990   -0.0990 C.a       1 LIG      0.874900
     18 N4          1.2530    1.7410   -0.0840 N.h       1 LIG     -0.715300
     19 C11         2.5430    1.2030   -0.0600 C.a       1 LIG      0.208600
     20 C12         3.5780    1.8470   -0.7260 C.a       1 LIG     -0.178000
     21 C13         4.8510    1.3120   -0.7010 C.a       1 LIG      0.001000
     22 C14         5.0960    0.1370   -0.0140 C.a       1 LIG     -0.409500
     23 S1          6.7220   -0.5410    0.0160 S.y       1 LIG      1.531200
     24 O1          6.5730   -1.9300    0.2770 O.3       1 LIG     -0.659800
     25 O2          7.3900   -0.0330   -1.1310 O.3       1 LIG     -0.659800
     26 N5          7.4970    0.1010    1.3310 N.3       1 LIG     -1.026700
     27 C15         4.0680   -0.5060    0.6500 C.a       1 LIG      0.001000
     28 C16         2.7930    0.0260    0.6330 C.a       1 LIG     -0.178000
     29 H          -0.5320   -2.2650   -0.2960 H         1 LIG      0.040100
     30 H1         -1.3930   -3.1090   -0.3200 H         1 LIG      0.052367
     31 H2         -2.8540   -3.5560   -1.1670 H         1 LIG      0.052367
     32 H3         -2.7820   -3.6790    0.5740 H         1 LIG      0.052367
     33 H4         -7.7980    1.7750    0.2940 H         1 LIG      0.180000
     34 H5         -5.5630    2.8120    0.2750 H         1 LIG      0.163000
     35 H6         -2.1160    3.0730    0.1390 H         1 LIG      0.052033
     36 H7         -3.5770    3.1680    1.0920 H         1 LIG      0.052033
     37 H8         -3.6600    3.2950   -0.6480 H         1 LIG      0.052033
     38 H9          1.1270    2.7170   -0.0900 H         1 LIG      0.444800
     39 H10         3.3960    2.7240   -1.2390 H         1 LIG      0.152000
     40 H11         5.6200    1.7900   -1.1960 H         1 LIG      0.154000
     41 H12         7.0530   -0.2350    2.1850 H         1 LIG      0.446300
     42 H13         7.4400    1.1190    1.2960 H         1 LIG      0.446300
     43 H14         4.2530   -1.3840    1.1590 H         1 LIG      0.154000
     44 H15         2.0270   -0.4510    1.1350 H         1 LIG      0.152000
@<TRIPOS>BOND
     1    1    2 ar  
     2    1    5 ar  
     3    1   15 1   
     4    2    3 ar  
     5    2    7 1   
     6    3    4 ar  
     7    4   17 ar  
     8    5   17 ar  
     9    6    7 1   
    10    7    8 1   
    11    8    9 2   
    12    8   10 1   
    13   10   11 ar  
    14   10   14 ar  
    15   11   12 ar  
    16   12   13 ar  
    17   13   14 ar  
    18   14   15 1   
    19   15   16 1   
    20   17   18 1   
    21   18   19 1   
    22   19   20 ar  
    23   19   28 ar  
    24   20   21 ar  
    25   21   22 ar  
    26   22   23 1   
    27   22   27 ar  
    28   23   24 2   
    29   23   25 2   
    30   23   26 1   
    31   27   28 ar  
    32    3   29 1   
    33    6   30 1   
    34    6   31 1   
    35    6   32 1   
    36   12   33 1   
    37   13   34 1   
    38   16   35 1   
    39   16   36 1   
    40   16   37 1   
    41   18   38 1   
    42   20   39 1   
    43   21   40 1   
    44   26   41 1   
    45   26   42 1   
    46   27   43 1   
    47   28   44 1   
@<TRIPOS>SUBSTRUCTURE
     1 LIG         1 TEMP              0 ****  ****    0 ROOT
