@<TRIPOS>MOLECULE
NDG
   30    30     1     0     0
SMALL
bcc


@<TRIPOS>ATOM
      1 C          -0.2070    1.2020    0.1400 C.3       1 LIG      0.330900
      2 C1         -0.8590   -0.1320   -0.2340 C.3       1 LIG      0.019700
      3 C2          0.0100   -1.2800    0.2900 C.3       1 LIG      0.080100
      4 C3          1.4220   -1.1410   -0.2870 C.3       1 LIG      0.090100
      5 C4          1.9860    0.2310    0.0880 C.3       1 LIG      0.094100
      6 C5          3.3720    0.4010   -0.5350 C.3       1 LIG      0.143400
      7 C6         -3.2500    0.3330   -0.2610 C.        1 LIG      0.670100
      8 C7         -4.6210    0.2520    0.3600 C.3       1 LIG     -0.171100
      9 O           1.1150    1.2530   -0.4020 O.2       1 LIG     -0.439600
     10 O1         -0.5530   -2.5290   -0.1170 O.h       1 LIG     -0.599800
     11 O2          2.2600   -2.1650    0.2520 O.h       1 LIG     -0.593800
     12 O3          3.9470    1.6320   -0.0900 O.h       1 LIG     -0.593800
     13 O4         -3.1000    0.8900   -1.3280 O.3       1 LIG     -0.622100
     14 N          -2.1910   -0.2120    0.3700 N.        1 LIG     -0.567900
     15 O5         -0.1440    1.3200    1.5620 O.h       1 LIG     -0.608800
     16 H          -0.7880    2.0070   -0.2580 H         1 LIG      0.121700
     17 H1         -0.9480   -0.2040   -1.2980 H         1 LIG      0.098700
     18 H2          0.0520   -1.2440    1.3590 H         1 LIG      0.078700
     19 H3          1.3870   -1.2360   -1.3520 H         1 LIG      0.055700
     20 H4          2.0620    0.3060    1.1530 H         1 LIG      0.065700
     21 H5          3.2850    0.4130   -1.6010 H         1 LIG      0.065200
     22 H6          3.9990   -0.4130   -0.2380 H         1 LIG      0.065200
     23 H7         -5.3310    0.7350   -0.2780 H         1 LIG      0.071367
     24 H8         -4.6100    0.7380    1.3130 H         1 LIG      0.071367
     25 H9         -4.8950   -0.7740    0.4860 H         1 LIG      0.071367
     26 H10        -0.5930   -2.5660   -1.0850 H         1 LIG      0.433000
     27 H11         2.2930   -2.0800    1.2180 H         1 LIG      0.427000
     28 H12         3.3790    2.3700   -0.3590 H         1 LIG      0.412000
     29 H13        -2.3130   -0.6640    1.2360 H         1 LIG      0.323500
     30 H14         0.3820    0.5900    1.9240 H         1 LIG      0.410000
@<TRIPOS>BOND
     1    1    2 1   
     2    1    9 1   
     3    1   15 1   
     4    2    3 1   
     5    2   14 1   
     6    3    4 1   
     7    3   10 1   
     8    4    5 1   
     9    4   11 1   
    10    5    6 1   
    11    5    9 1   
    12    6   12 1   
    13    7    8 1   
    14    7   13 2   
    15    7   14 1   
    16    1   16 1   
    17    2   17 1   
    18    3   18 1   
    19    4   19 1   
    20    5   20 1   
    21    6   21 1   
    22    6   22 1   
    23    8   23 1   
    24    8   24 1   
    25    8   25 1   
    26   10   26 1   
    27   11   27 1   
    28   12   28 1   
    29   14   29 1   
    30   15   30 1   
@<TRIPOS>SUBSTRUCTURE
     1 LIG         1 TEMP              0 ****  ****    0 ROOT
