@<TRIPOS>MOLECULE
5XE
   44    46     1     0     0
SMALL
bcc


@<TRIPOS>ATOM
      1 C          -2.1380   -2.5960   -1.1910 c3        1 LIG     -0.106800
      2 C1         -2.2580   -1.3500   -0.3520 ca        1 LIG      0.061700
      3 C2         -3.1220   -0.3420   -0.7320 ca        1 LIG     -0.140000
      4 C3         -3.2370    0.8000    0.0410 ca        1 LIG      0.038100
      5 Br         -4.4200    2.1800   -0.4790 br        1 LIG     -0.073100
      6 C4         -2.4860    0.9310    1.1950 ca        1 LIG     -0.140000
      7 C5         -1.6210   -0.0790    1.5750 ca        1 LIG     -0.023000
      8 C6         -1.5070   -1.2190    0.8020 ca        1 LIG     -0.373500
      9 S          -0.4110   -2.5090    1.2910 sy        1 LIG      1.512200
     10 O           0.2360   -2.0590    2.4740 o         1 LIG     -0.650300
     11 O1         -1.1560   -3.7160    1.2240 o         1 LIG     -0.650300
     12 N           0.7640   -2.6190    0.1290 nh        1 LIG     -0.764500
     13 C7          1.5850   -1.5170   -0.1450 ca        1 LIG      0.136600
     14 C8          1.9750   -0.6730    0.8820 ca        1 LIG     -0.133000
     15 C9          2.7880    0.4180    0.6090 ca        1 LIG     -0.010400
     16 N1          3.3350    1.4240    1.4050 n         1 LIG     -0.332000
     17 C10         3.1550    1.5660    2.8520 c3        1 LIG      0.080300
     18 C11         4.0560    2.2430    0.6180 c         1 LIG      0.774500
     19 O2          4.6670    3.2250    0.9990 o         1 LIG     -0.612500
     20 N2          4.0020    1.8120   -0.6560 n         1 LIG     -0.336000
     21 C12         4.6600    2.4410   -1.8040 c3        1 LIG      0.081300
     22 C13         3.2110    0.6630   -0.6980 ca        1 LIG      0.008600
     23 C14         2.8190   -0.1830   -1.7250 ca        1 LIG     -0.170000
     24 C15         2.0130   -1.2740   -1.4500 ca        1 LIG      0.089100
     25 O3          1.6330   -2.1080   -2.4550 os        1 LIG     -0.343900
     26 C16         2.1070   -1.8010   -3.7680 c3        1 LIG      0.114700
     27 H          -1.4270   -3.2600   -0.7450 hc        1 LIG      0.070700
     28 H1         -1.8110   -2.3330   -2.1750 hc        1 LIG      0.070700
     29 H2         -3.0900   -3.0800   -1.2490 hc        1 LIG      0.070700
     30 H3         -3.6820   -0.4400   -1.5930 ha        1 LIG      0.153000
     31 H4         -2.5710    1.7820    1.7720 ha        1 LIG      0.155000
     32 H5         -1.0600    0.0190    2.4360 ha        1 LIG      0.167000
     33 H6          0.8860   -3.4590   -0.3690 hn        1 LIG      0.464800
     34 H7          1.6610   -0.8550    1.8480 ha        1 LIG      0.183000
     35 H8          2.5340    0.7730    3.2140 h1        1 LIG      0.057367
     36 H9          2.6910    2.5070    3.0630 h1        1 LIG      0.057367
     37 H10         4.1080    1.5220    3.3360 h1        1 LIG      0.057367
     38 H11         5.1990    3.3060   -1.4770 h1        1 LIG      0.054367
     39 H12         3.9220    2.7310   -2.5230 h1        1 LIG      0.054367
     40 H13         5.3400    1.7460   -2.2510 h1        1 LIG      0.054367
     41 H14         3.1280    0.0010   -2.6920 ha        1 LIG      0.151000
     42 H15         1.7380   -2.5290   -4.4600 h1        1 LIG      0.047033
     43 H16         3.1770   -1.8140   -3.7730 h1        1 LIG      0.047033
     44 H17         1.7610   -0.8300   -4.0540 h1        1 LIG      0.047033
@<TRIPOS>BOND
     1    2    8 ar  
     2    2    1 1   
     3    3    2 ar  
     4    4    6 ar  
     5    4    3 ar  
     6    5    4 1   
     7    6    7 ar  
     8    7    8 ar  
     9    8    9 1   
    10    9   11 2   
    11    9   12 1   
    12   10    9 2   
    13   12   13 1   
    14   13   14 ar  
    15   13   24 ar  
    16   14   15 ar  
    17   15   16 1   
    18   15   22 ar  
    19   16   18 1   
    20   17   16 1   
    21   18   19 2   
    22   20   18 1   
    23   20   21 1   
    24   22   20 1   
    25   23   22 ar  
    26   24   23 ar  
    27   25   24 1   
    28   25   26 1   
    29    1   27 1   
    30    1   28 1   
    31    1   29 1   
    32    3   30 1   
    33    6   31 1   
    34    7   32 1   
    35   12   33 1   
    36   14   34 1   
    37   17   35 1   
    38   17   36 1   
    39   17   37 1   
    40   21   38 1   
    41   21   39 1   
    42   21   40 1   
    43   23   41 1   
    44   26   42 1   
    45   26   43 1   
    46   26   44 1   
@<TRIPOS>SUBSTRUCTURE
     1 LIG         1 TEMP              0 ****  ****    0 ROOT
