@<TRIPOS>MOLECULE
GVG
   22    23     1     0     0
SMALL
bcc


@<TRIPOS>ATOM
      1 C           1.4720    4.6460    3.0250 C.c       1 LIG      0.327600
      2 C1          1.2630    5.4630    1.7900 C.3       1 LIG     -0.125400
      3 C2          1.6270    3.1650    3.0040 C.c       1 LIG     -0.208300
      4 C3          1.6500    2.2580    1.8860 C.a       1 LIG      0.008000
      5 C4          2.3110    2.5670    0.6100 C.a       1 LIG     -0.126000
      6 C5          0.4560    1.6200    1.8250 C.a       1 LIG     -0.126000
      7 C6          1.7500    2.2390   -0.5670 C.a       1 LIG     -0.128000
      8 C7         -0.1510    1.2640    0.5530 C.a       1 LIG     -0.128000
      9 C8          0.4690    1.5650   -0.5990 C.a       1 LIG     -0.133000
     10 C9          1.7500    2.9530    4.3190 C.d       1 LIG     -0.135300
     11 N           1.6990    4.1160    5.0190 N.a       1 LIG     -0.016600
     12 N1          1.5300    5.1890    4.2170 N.d       1 LIG     -0.519800
     13 H           1.2490    4.8200    0.9350 H         1 LIG      0.052367
     14 H1          2.0600    6.1700    1.6910 H         1 LIG      0.052367
     15 H2          0.3310    5.9840    1.8600 H         1 LIG      0.052367
     16 H3          3.2250    3.0460    0.6180 H         1 LIG      0.132500
     17 H4         -0.0340    1.3810    2.7020 H         1 LIG      0.132500
     18 H5          2.2330    2.4680   -1.4500 H         1 LIG      0.130500
     19 H6         -1.0610    0.7780    0.5350 H         1 LIG      0.130500
     20 H7          0.0350    1.3170   -1.5020 H         1 LIG      0.131000
     21 H8          1.8690    2.0220    4.7480 H         1 LIG      0.178000
     22 H9          1.7760    4.1700    5.9990 H         1 LIG      0.321700
@<TRIPOS>BOND
     1    1    2 1   
     2    1    3 ar  
     3    1   12 ar  
     4    3    4 1   
     5    3   10 ar  
     6    4    5 ar  
     7    4    6 ar  
     8    5    7 ar  
     9    6    8 ar  
    10    7    9 ar  
    11    8    9 ar  
    12   10   11 ar  
    13   11   12 ar  
    14    2   13 1   
    15    2   14 1   
    16    2   15 1   
    17    5   16 1   
    18    6   17 1   
    19    7   18 1   
    20    8   19 1   
    21    9   20 1   
    22   10   21 1   
    23   11   22 1   
@<TRIPOS>SUBSTRUCTURE
     1 LIG         1 TEMP              0 ****  ****    0 ROOT
