@<TRIPOS>MOLECULE
AGI
   30    32     1     0     0
SMALL
bcc


@<TRIPOS>ATOM
      1 C          -2.7120   -1.2600   -0.0020 C.a       1 LIG     -0.053000
      2 C1         -4.0740   -1.4610   -0.0030 C.a       1 LIG     -0.193500
      3 C2         -4.9390   -0.3730   -0.0110 C.a       1 LIG      0.150100
      4 O          -6.2810   -0.5760   -0.0130 O.h       1 LIG     -0.490100
      5 C3         -4.4340    0.9220   -0.0170 C.a       1 LIG     -0.193500
      6 C4         -3.0730    1.1320   -0.0150 C.a       1 LIG     -0.053000
      7 C5         -2.1990    0.0410   -0.0070 C.a       1 LIG     -0.119800
      8 C6         -0.7410    0.2610   -0.0050 C.c       1 LIG      0.207900
      9 O1          0.0730   -0.8060    0.0020 O.2       1 LIG     -0.227200
     10 C7         -0.2720    1.5380   -0.0160 C.d       1 LIG     -0.319200
     11 C8          1.1240    1.7690   -0.0150 C.        1 LIG      0.607900
     12 O2          1.5790    2.9010   -0.0240 O.3       1 LIG     -0.588100
     13 C9          2.0060    0.5890   -0.0010 C.a       1 LIG     -0.332600
     14 C10         1.4180   -0.6870    0.0050 C.a       1 LIG      0.220100
     15 C11         2.2300   -1.8110    0.0130 C.a       1 LIG     -0.295000
     16 C12         3.6090   -1.6710    0.0160 C.a       1 LIG      0.215100
     17 O3          4.3970   -2.7760    0.0240 O.h       1 LIG     -0.484100
     18 C13         4.1930   -0.4080    0.0090 C.a       1 LIG     -0.239000
     19 C14         3.4000    0.7240    0.0020 C.a       1 LIG      0.260100
     20 O4          3.9680    1.9560   -0.0090 O.h       1 LIG     -0.494100
     21 H          -2.0700   -2.0680    0.0020 H         1 LIG      0.148500
     22 H1         -4.4530   -2.4210    0.0020 H         1 LIG      0.150000
     23 H2         -6.6230   -1.4480   -0.0090 H         1 LIG      0.425000
     24 H3         -5.0800    1.7270   -0.0230 H         1 LIG      0.150000
     25 H4         -2.6990    2.0940   -0.0190 H         1 LIG      0.148500
     26 H5         -0.9300    2.3330   -0.0250 H         1 LIG      0.171000
     27 H6          1.8070   -2.7520    0.0170 H         1 LIG      0.157000
     28 H7          4.0080   -3.6290    0.0290 H         1 LIG      0.427000
     29 H8          5.2210   -0.3160    0.0090 H         1 LIG      0.176000
     30 H9          3.4270    2.7210   -0.0140 H         1 LIG      0.468000
@<TRIPOS>BOND
     1    1    2 ar  
     2    1    7 ar  
     3    2    3 ar  
     4    3    4 1   
     5    3    5 ar  
     6    5    6 ar  
     7    6    7 ar  
     8    7    8 1   
     9    8    9 1   
    10    8   10 2   
    11    9   14 1   
    12   10   11 1   
    13   11   12 2   
    14   11   13 1   
    15   13   14 ar  
    16   13   19 ar  
    17   14   15 ar  
    18   15   16 ar  
    19   16   17 1   
    20   16   18 ar  
    21   18   19 ar  
    22   19   20 1   
    23    1   21 1   
    24    2   22 1   
    25    4   23 1   
    26    5   24 1   
    27    6   25 1   
    28   10   26 1   
    29   15   27 1   
    30   17   28 1   
    31   18   29 1   
    32   20   30 1   
@<TRIPOS>SUBSTRUCTURE
     1 LIG         1 TEMP              0 ****  ****    0 ROOT
