@<TRIPOS>MOLECULE
7XO
   64    68     1     0     0
SMALL
bcc


@<TRIPOS>ATOM
      1 C           2.2430   -1.1930   -0.0470 C.a       1 LIG      0.455800
      2 C1          2.1500    0.2120    0.0070 C.a       1 LIG     -0.152200
      3 C2          0.8820    0.7910    0.0510 C.a       1 LIG      0.500200
      4 C3          4.2660   -0.2980   -0.0480 C.c       1 LIG      0.622700
      5 N          -0.1780    0.0000    0.0390 N.b       1 LIG     -0.749000
      6 N1         -1.1970   -2.1030   -0.0230 N.h       1 LIG     -0.711300
      7 N2          1.1310   -1.9130   -0.0560 N.b       1 LIG     -0.731000
      8 C4         -6.1520    1.6910    0.3170 C.3       1 LIG      0.162300
      9 C5         -7.5240    2.3150    0.5860 C.3       1 LIG      0.105300
     10 N3         -8.5380    1.6340   -0.2310 N.4       1 LIG     -0.680400
     11 C6         -8.2930    1.8520   -1.6630 C.3       1 LIG      0.078100
     12 C7         -8.5860    0.1990    0.0820 C.3       1 LIG      0.105300
     13 C8         -7.2140   -0.4250   -0.1870 C.3       1 LIG      0.162300
     14 N4         -6.2000    0.2560    0.6300 N.h       1 LIG     -0.630000
     15 C9         -4.9430   -0.3360    0.4650 C.a       1 LIG      0.043600
     16 C10        -3.8450    0.1620    1.1540 C.a       1 LIG     -0.119500
     17 C11        -2.6040   -0.4220    0.9920 C.a       1 LIG     -0.131000
     18 C12        -4.7940   -1.4250   -0.3830 C.a       1 LIG     -0.119500
     19 C13        -3.5540   -2.0130   -0.5420 C.a       1 LIG     -0.131000
     20 C14        -2.4540   -1.5070    0.1390 C.a       1 LIG      0.171600
     21 C15        -0.0520   -1.3190   -0.0130 C.a       1 LIG      0.852900
     22 N5          3.4180    0.6980    0.0040 N.d       1 LIG     -0.574100
     23 N6          3.5870   -1.4850   -0.0860 N.a       1 LIG     -0.280000
     24 C16         4.1810   -2.8230   -0.1480 C.3       1 LIG      0.053000
     25 C17         5.0300   -2.9460   -1.4150 C.3       1 LIG     -0.113600
     26 C18         5.0650   -3.0460    1.0810 C.3       1 LIG     -0.113600
     27 N7          5.6410   -0.1700   -0.0660 N.h       1 LIG     -0.648600
     28 C19         6.2250    1.1000   -0.0550 C.a       1 LIG      0.109600
     29 C20         7.4750    1.2870    0.5200 C.a       1 LIG     -0.132000
     30 C21         8.0490    2.5430    0.5290 C.a       1 LIG     -0.114500
     31 C22         7.3810    3.6140   -0.0340 C.a       1 LIG     -0.131000
     32 C23         6.1350    3.4320   -0.6070 C.a       1 LIG     -0.114500
     33 C24         5.5580    2.1780   -0.6250 C.a       1 LIG     -0.132000
     34 H           0.7730    1.8160    0.0920 H         1 LIG      0.044100
     35 H1         -1.1260   -3.0770   -0.1440 H         1 LIG      0.440800
     36 H2         -5.4170    2.1660    0.9320 H         1 LIG      0.077700
     37 H3         -5.8940    1.8240   -0.7130 H         1 LIG      0.077700
     38 H4         -7.5000    3.3540    0.3320 H         1 LIG      0.107450
     39 H5         -7.7690    2.2080    1.6220 H         1 LIG      0.107450
     40 H6         -9.4470    2.0360   -0.0040 H         1 LIG      0.448800
     41 H7         -7.3430    1.4380   -1.9290 H         1 LIG      0.104033
     42 H8         -8.2960    2.9020   -1.8690 H         1 LIG      0.104033
     43 H9         -9.0620    1.3750   -2.2330 H         1 LIG      0.104033
     44 H10        -9.3210   -0.2760   -0.5330 H         1 LIG      0.107450
     45 H11        -8.8440    0.0660    1.1120 H         1 LIG      0.107450
     46 H12        -7.2380   -1.4640    0.0670 H         1 LIG      0.077700
     47 H13        -6.9690   -0.3180   -1.2230 H         1 LIG      0.077700
     48 H14        -3.9560    0.9690    1.7880 H         1 LIG      0.134000
     49 H15        -1.7880   -0.0520    1.5050 H         1 LIG      0.158500
     50 H16        -5.6100   -1.7960   -0.8950 H         1 LIG      0.134000
     51 H17        -3.4450   -2.8280   -1.1660 H         1 LIG      0.158500
     52 H18         3.4030   -3.5580   -0.1670 H         1 LIG      0.090700
     53 H19         5.8080   -2.2110   -1.3960 H         1 LIG      0.051200
     54 H20         4.4120   -2.7900   -2.2750 H         1 LIG      0.051200
     55 H21         5.4640   -3.9230   -1.4600 H         1 LIG      0.051200
     56 H22         5.8430   -2.3110    1.0990 H         1 LIG      0.051200
     57 H23         5.4990   -4.0230    1.0360 H         1 LIG      0.051200
     58 H24         4.4720   -2.9600    1.9670 H         1 LIG      0.051200
     59 H25         6.2100   -0.9730   -0.0870 H         1 LIG      0.419800
     60 H26         7.9750    0.4880    0.9400 H         1 LIG      0.141500
     61 H27         8.9780    2.6820    0.9570 H         1 LIG      0.138000
     62 H28         7.8130    4.5510   -0.0270 H         1 LIG      0.139000
     63 H29         5.6360    4.2350   -1.0220 H         1 LIG      0.138000
     64 H30         4.6330    2.0410   -1.0610 H         1 LIG      0.141500
@<TRIPOS>BOND
     1    1    7 ar  
     2    2    3 ar  
     3    2    1 ar  
     4    3    5 ar  
     5    4   22 2   
     6    4   23 1   
     7    5   21 ar  
     8    6   20 1   
     9    7   21 ar  
    10    8    9 1   
    11   10    9 1   
    12   10   11 1   
    13   12   10 1   
    14   13   14 1   
    15   13   12 1   
    16   14    8 1   
    17   15   16 ar  
    18   15   14 1   
    19   17   16 ar  
    20   18   15 ar  
    21   19   20 ar  
    22   19   18 ar  
    23   20   17 ar  
    24   21    6 1   
    25   22    2 1   
    26   23   24 1   
    27   23    1 1   
    28   24   26 1   
    29   24   25 1   
    30   27    4 1   
    31   28   27 1   
    32   29   28 ar  
    33   30   29 ar  
    34   31   32 ar  
    35   31   30 ar  
    36   32   33 ar  
    37   33   28 ar  
    38    3   34 1   
    39    6   35 1   
    40    8   36 1   
    41    8   37 1   
    42    9   38 1   
    43    9   39 1   
    44   10   40 1   
    45   11   41 1   
    46   11   42 1   
    47   11   43 1   
    48   12   44 1   
    49   12   45 1   
    50   13   46 1   
    51   13   47 1   
    52   16   48 1   
    53   17   49 1   
    54   18   50 1   
    55   19   51 1   
    56   24   52 1   
    57   25   53 1   
    58   25   54 1   
    59   25   55 1   
    60   26   56 1   
    61   26   57 1   
    62   26   58 1   
    63   27   59 1   
    64   29   60 1   
    65   30   61 1   
    66   31   62 1   
    67   32   63 1   
    68   33   64 1   
@<TRIPOS>SUBSTRUCTURE
     1 LIG         1 TEMP              0 ****  ****    0 ROOT
