@<TRIPOS>MOLECULE
FID
   30    32     1     0     0
SMALL
bcc


@<TRIPOS>ATOM
      1 C           2.7610    0.5170   -1.2390 c         1 LIG      0.781500
      2 N           2.7120   -0.7770   -0.9010 n         1 LIG     -0.607500
      3 C1          1.6080   -1.0610   -0.1790 c         1 LIG      0.699500
      4 C2          0.8660    0.2470   -0.0490 c3        1 LIG      0.071700
      5 C3         -0.4960    0.1480   -0.6780 ca        1 LIG     -0.155300
      6 C4         -0.5790    0.0090   -2.0550 ca        1 LIG     -0.130000
      7 C5         -1.8090   -0.0940   -2.6760 ca        1 LIG      0.102900
      8 F          -1.8820   -0.2280   -4.0190 f         1 LIG     -0.132900
      9 C6         -2.9660   -0.0600   -1.9170 ca        1 LIG     -0.120000
     10 C7         -2.8880    0.0800   -0.5480 ca        1 LIG     -0.129000
     11 C8         -1.6490    0.1900    0.0840 ca        1 LIG      0.146100
     12 O          -1.6540    0.3470    1.4290 os        1 LIG     -0.331900
     13 C9         -0.4490   -0.1380    1.9990 c3        1 LIG      0.061100
     14 C10        -0.4890    0.0420    3.4940 c         1 LIG      0.663100
     15 N1          0.5570   -0.3470    4.2490 n         1 LIG     -0.651000
     16 O1         -1.4630    0.5390    4.0190 o         1 LIG     -0.606100
     17 C11         0.7340    0.6470    1.4170 c3        1 LIG     -0.088400
     18 N2          1.7020    1.2090   -0.7750 n         1 LIG     -0.512900
     19 O2          1.2810   -2.1380    0.2700 o         1 LIG     -0.571500
     20 O3          3.6600    1.0120   -1.8890 o         1 LIG     -0.593500
     21 H           3.3970   -1.4400   -1.1490 hn        1 LIG      0.362500
     22 H1          0.2840   -0.0180   -2.6200 ha        1 LIG      0.153000
     23 H2         -3.8870   -0.1400   -2.3760 ha        1 LIG      0.159000
     24 H3         -3.7530    0.1040    0.0140 ha        1 LIG      0.159000
     25 H4         -0.3370   -1.1780    1.7730 h1        1 LIG      0.108700
     26 H5          1.3480   -0.7500    3.8240 hn        1 LIG      0.320500
     27 H6          0.5300   -0.2280    5.2260 hn        1 LIG      0.320500
     28 H7          0.5500    1.6980    1.4950 hc        1 LIG      0.096200
     29 H8          1.6340    0.4280    1.9520 hc        1 LIG      0.096200
     30 H9          1.5250    2.1700   -0.8990 hn        1 LIG      0.327500
@<TRIPOS>BOND
     1    1    2 1   
     2    1   18 1   
     3    1   20 2   
     4    2    3 1   
     5    3    4 1   
     6    3   19 2   
     7    4    5 1   
     8    4   17 1   
     9    4   18 1   
    10    5    6 ar  
    11    5   11 ar  
    12    6    7 ar  
    13    7    8 1   
    14    7    9 ar  
    15    9   10 ar  
    16   10   11 ar  
    17   11   12 1   
    18   12   13 1   
    19   13   14 1   
    20   13   17 1   
    21   14   15 1   
    22   14   16 2   
    23    2   21 1   
    24    6   22 1   
    25    9   23 1   
    26   10   24 1   
    27   13   25 1   
    28   15   26 1   
    29   15   27 1   
    30   17   28 1   
    31   17   29 1   
    32   18   30 1   
@<TRIPOS>SUBSTRUCTURE
     1 LIG         1 TEMP              0 ****  ****    0 ROOT
