@<TRIPOS>MOLECULE
19W
   22    21     1     0     0
SMALL
bcc


@<TRIPOS>ATOM
      1 N          -1.4270    1.7940   -0.2060 N.4       1 LIG     -0.836600
      2 CA         -1.3950    0.3520   -0.4850 C.3       1 LIG     -0.072500
      3 C          -2.6600   -0.2860    0.0290 C.        1 LIG      0.936600
      4 OXT        -3.3240    0.2770    0.8670 O.3       1 LIG     -0.755300
      5 C1         -0.1870   -0.2760    0.2130 C.3       1 LIG     -0.095400
      6 C2          1.1010    0.2820   -0.3970 C.3       1 LIG     -0.100400
      7 C3          2.3090   -0.3460    0.3010 C.3       1 LIG      0.143400
      8 O           3.5110    0.1750   -0.2680 O.2       1 LIG     -0.278100
      9 N1          4.7340   -0.3630    0.3300 N.3       1 LIG     -0.655300
     10 O1         -3.0500   -1.4800   -0.4450 O.3       1 LIG     -0.755300
     11 H1         -0.5710    2.2270   -0.5540 H         1 LIG      0.443467
     12 H2         -1.4990    1.9440    0.8000 H         1 LIG      0.443467
     13 H3         -2.2330    2.2120   -0.6710 H         1 LIG      0.443467
     14 HA         -1.3190    0.1940   -1.5400 H         1 LIG      0.090700
     15 H          -0.2120   -1.3380    0.0830 H         1 LIG      0.088200
     16 H4         -0.2170   -0.0430    1.2570 H         1 LIG      0.088200
     17 H5          1.1260    1.3440   -0.2670 H         1 LIG      0.041200
     18 H6          1.1310    0.0500   -1.4410 H         1 LIG      0.041200
     19 H7          2.2840   -1.4080    0.1710 H         1 LIG      0.049700
     20 H8          2.2790   -0.1140    1.3450 H         1 LIG      0.049700
     21 H9          5.5460    0.0530   -0.1250 H         1 LIG      0.344300
     22 H10         4.7560   -1.3750    0.2060 H         1 LIG      0.344300
@<TRIPOS>BOND
     1    2    1 1   
     2    2    5 1   
     3    3    2 1   
     4    3   10 1   
     5    4    3 1   
     6    6    5 1   
     7    6    7 1   
     8    7    8 1   
     9    8    9 1   
    10    1   11 1   
    11    1   12 1   
    12    1   13 1   
    13    2   14 1   
    14    5   15 1   
    15    5   16 1   
    16    6   17 1   
    17    6   18 1   
    18    7   19 1   
    19    7   20 1   
    20    9   21 1   
    21    9   22 1   
@<TRIPOS>SUBSTRUCTURE
     1 LIG         1 TEMP              0 ****  ****    0 ROOT
