@<TRIPOS>MOLECULE
L66
   50    54     1     0     0
SMALL
bcc


@<TRIPOS>ATOM
      1 O          -6.5580   -0.2050    0.1650 O.3       1 LIG     -0.645500
      2 C          -5.3830    0.1080    0.1600 C.        1 LIG      0.817500
      3 N          -5.0410    1.3750    0.4470 N.        1 LIG     -0.583500
      4 C1         -3.7500    1.7640    0.4530 C.        1 LIG      0.770100
      5 O1         -3.4540    2.9170    0.7150 O.3       1 LIG     -0.629500
      6 N1         -4.4570   -0.8260   -0.1260 N.        1 LIG     -0.422300
      7 C2         -4.8700   -2.1990   -0.4290 C.3       1 LIG      0.090300
      8 C3         -3.1120   -0.4890   -0.1370 C.c       1 LIG      0.522200
      9 C4         -2.7480    0.8260    0.1540 C.d       1 LIG     -0.369200
     10 N2         -1.9950   -1.1720   -0.3760 N.c       1 LIG     -0.695000
     11 C5         -0.9430   -0.3760   -0.2550 C.d       1 LIG      0.524000
     12 N3         -1.3640    0.8750    0.0730 N.a       1 LIG     -0.084900
     13 C6         -0.2560    1.6890    0.1930 C.d       1 LIG     -0.106300
     14 N4          0.4260   -0.3450   -0.3400 N.a       1 LIG     -0.113000
     15 C7          0.8390    0.9510   -0.0570 C.c       1 LIG     -0.029300
     16 C8          2.2380    1.4340   -0.0350 C.a       1 LIG      0.004000
     17 C9          2.6660    2.3800   -0.9660 C.a       1 LIG     -0.082300
     18 C10         1.7040    2.9130   -1.9970 C.3       1 LIG     -0.057800
     19 C11         3.9710    2.8290   -0.9430 C.a       1 LIG     -0.105000
     20 C12         4.8570    2.3430    0.0010 C.a       1 LIG     -0.138000
     21 C13         3.1300    0.9490    0.9210 C.a       1 LIG     -0.187000
     22 C14         4.4390    1.4010    0.9320 C.a       1 LIG      0.117100
     23 O2          5.3120    0.9310    1.8620 O.h       1 LIG     -0.496100
     24 C15         1.2600   -1.4270   -0.6560 C.a       1 LIG     -0.023200
     25 C16         1.5950   -1.6840   -1.9770 C.a       1 LIG     -0.073000
     26 C17         2.4160   -2.7520   -2.2860 C.a       1 LIG     -0.156000
     27 C18         2.9060   -3.5660   -1.2810 C.a       1 LIG     -0.078000
     28 C19         2.5760   -3.3160    0.0380 C.a       1 LIG     -0.198000
     29 C20         1.7570   -2.2440    0.3570 C.a       1 LIG      0.138100
     30 O3          1.4320   -1.9970    1.6540 O.2       1 LIG     -0.327900
     31 C21         1.9690   -2.8830    2.6380 C.3       1 LIG      0.113700
     32 H          -5.7450    2.0310    0.6560 H         1 LIG      0.355500
     33 H1         -5.9360   -2.2710   -0.3730 H         1 LIG      0.062700
     34 H2         -4.4300   -2.8690    0.2800 H         1 LIG      0.062700
     35 H3         -4.5460   -2.4600   -1.4150 H         1 LIG      0.062700
     36 H4         -0.2670    2.6920    0.4330 H         1 LIG      0.212000
     37 H5          0.7470    2.4540   -1.8620 H         1 LIG      0.049367
     38 H6          2.0720    2.6900   -2.9770 H         1 LIG      0.049367
     39 H7          1.6110    3.9730   -1.8840 H         1 LIG      0.049367
     40 H8          4.2860    3.5290   -1.6320 H         1 LIG      0.140000
     41 H9          5.8320    2.6810    0.0140 H         1 LIG      0.154000
     42 H10         2.8160    0.2560    1.6180 H         1 LIG      0.154000
     43 H11         5.0300    0.2950    2.4900 H         1 LIG      0.421000
     44 H12         1.2310   -1.0780   -2.7290 H         1 LIG      0.152000
     45 H13         2.6640   -2.9430   -3.2690 H         1 LIG      0.145000
     46 H14         3.5190   -4.3620   -1.5160 H         1 LIG      0.141000
     47 H15         2.9390   -3.9280    0.7850 H         1 LIG      0.145000
     48 H16         1.6390   -2.5790    3.6100 H         1 LIG      0.050367
     49 H17         3.0380   -2.8530    2.5990 H         1 LIG      0.050367
     50 H18         1.6320   -3.8800    2.4420 H         1 LIG      0.050367
@<TRIPOS>BOND
     1    2    1 2   
     2    2    3 1   
     3    4    3 1   
     4    4    5 2   
     5    6    2 1   
     6    7    6 1   
     7    8    6 1   
     8    8    9 ar  
     9    9    4 1   
    10   10   11 ar  
    11   10    8 ar  
    12   11   12 ar  
    13   12   13 ar  
    14   12    9 ar  
    15   14   11 ar  
    16   14   15 ar  
    17   15   13 ar  
    18   16   15 1   
    19   16   17 ar  
    20   17   18 1   
    21   19   17 ar  
    22   20   19 ar  
    23   21   16 ar  
    24   22   21 ar  
    25   22   20 ar  
    26   23   22 1   
    27   24   14 1   
    28   25   24 ar  
    29   26   25 ar  
    30   27   28 ar  
    31   27   26 ar  
    32   28   29 ar  
    33   29   30 1   
    34   29   24 ar  
    35   31   30 1   
    36    3   32 1   
    37    7   33 1   
    38    7   34 1   
    39    7   35 1   
    40   13   36 1   
    41   18   37 1   
    42   18   38 1   
    43   18   39 1   
    44   19   40 1   
    45   20   41 1   
    46   21   42 1   
    47   23   43 1   
    48   25   44 1   
    49   26   45 1   
    50   27   46 1   
    51   28   47 1   
    52   31   48 1   
    53   31   49 1   
    54   31   50 1   
@<TRIPOS>SUBSTRUCTURE
     1 LIG         1 TEMP              0 ****  ****    0 ROOT
