@<TRIPOS>MOLECULE
DBS
   27    27     1     0     0
SMALL
bcc


@<TRIPOS>ATOM
      1 O          -4.8850   -0.5650    0.1430 O.h       0 UNK     -0.523100
      2 C          -3.7160    0.1200    0.0230 C.a       0 UNK      0.014100
      3 C1         -3.7340    1.4760   -0.2520 C.a       0 UNK     -0.167000
      4 C2         -2.5020   -0.5440    0.1710 C.a       0 UNK      0.153100
      5 O1         -2.4810   -1.8750    0.4410 O.h       0 UNK     -0.467100
      6 C3         -1.3040    0.1680    0.0500 C.a       0 UNK     -0.126600
      7 C4         -1.3380    1.5380   -0.2280 C.a       0 UNK     -0.098000
      8 C5         -2.5470    2.1810   -0.3770 C.a       0 UNK     -0.146000
      9 C6         -0.0100   -0.5230    0.2110 C.        0 UNK      0.669700
     10 O2          0.0160   -1.7150    0.4530 O.3       0 UNK     -0.625100
     11 N           1.1420    0.1650    0.0880 N.        1 SER     -0.504900
     12 CA          2.4260   -0.5220    0.2470 C.3       1 SER     -0.079300
     13 CB          2.8340   -1.1550   -1.0850 C.3       1 SER      0.125400
     14 OG          3.0720   -0.1260   -2.0480 O.h       1 SER     -0.649800
     15 C           3.4770    0.4700    0.6750 C.        1 SER      0.914600
     16 O           4.7390    0.0630    0.8820 O.3       1 SER     -0.826800
     17 OXT         3.1830    1.6320    0.8310 O.3       1 SER     -0.826800
     18 H          -5.7020   -0.1180    0.0430 H         0 UNK      0.419000
     19 H1         -4.6360    1.9650   -0.3650 H         0 UNK      0.123000
     20 H2         -3.2850   -2.3490    0.5210 H         0 UNK      0.427000
     21 H3         -0.4570    2.0670   -0.3220 H         0 UNK      0.159000
     22 H4         -2.5690    3.1920   -0.5830 H         0 UNK      0.130000
     23 H           1.1210    1.1290   -0.1090 H         1 SER      0.323500
     24 HA          2.3330   -1.2860    0.9910 H         1 SER      0.072700
     25 HB1         2.0490   -1.7940   -1.4320 H         1 SER      0.035200
     26 HB2         3.7260   -1.7290   -0.9490 H         1 SER      0.035200
     27 H5          2.2630    0.3950   -2.1720 H         1 SER      0.439000
@<TRIPOS>BOND
     1    1    2 1   
     2    2    3 ar  
     3    2    4 ar  
     4    3    8 ar  
     5    4    5 1   
     6    4    6 ar  
     7    6    7 ar  
     8    6    9 1   
     9    7    8 ar  
    10    9   10 2   
    11    9   11 1   
    12   11   12 1   
    13   12   13 1   
    14   12   15 1   
    15   13   14 1   
    16   15   16 1   
    17   15   17 1   
    18    1   18 1   
    19    3   19 1   
    20    5   20 1   
    21    7   21 1   
    22    8   22 1   
    23   11   23 1   
    24   12   24 1   
    25   13   25 1   
    26   13   26 1   
    27   14   27 1   
@<TRIPOS>SUBSTRUCTURE
     1 UNK         1 TEMP              0 ****  ****    0 ROOT
