@<TRIPOS>MOLECULE
B72
   47    48     1     0     0
SMALL
bcc


@<TRIPOS>ATOM
      1 O          -7.0060    0.4130   -1.4840 O.3       1 LIG     -0.819800
      2 C          -6.0230   -0.3580   -0.9930 C.        1 LIG      0.926600
      3 O1         -6.1670   -1.5560   -0.9350 O.3       1 LIG     -0.819800
      4 C1         -4.7400    0.2710   -0.5150 C.3       1 LIG     -0.011600
      5 O2         -3.8570   -0.7480   -0.0410 O.2       1 LIG     -0.285900
      6 C2         -2.6470   -0.3470    0.4290 C.a       1 LIG      0.170100
      7 C3         -1.7410   -1.2840    0.9040 C.a       1 LIG     -0.203000
      8 C4         -0.5110   -0.8730    1.3810 C.a       1 LIG     -0.040300
      9 C5          0.4740   -1.8900    1.8970 C.3       1 LIG     -0.051800
     10 C6         -0.1840    0.4700    1.3860 C.a       1 LIG     -0.154300
     11 C7         -1.0850    1.4050    0.9130 C.a       1 LIG     -0.040300
     12 C8         -2.3140    0.9990    0.4290 C.a       1 LIG     -0.203000
     13 C9         -0.7250    2.8690    0.9200 C.3       1 LIG     -0.051800
     14 C10         1.1560    0.9150    1.9130 C.3       1 LIG      0.024200
     15 C11         2.1640    0.9100    0.7930 C.a       1 LIG     -0.093300
     16 C12         2.9090   -0.2270    0.5400 C.a       1 LIG     -0.105000
     17 C13         3.8290   -0.2360   -0.4910 C.a       1 LIG     -0.154300
     18 C14         4.6410   -1.4750   -0.7660 C.3       1 LIG     -0.018400
     19 C15         5.4680   -1.8290    0.4710 C.3       1 LIG     -0.088600
     20 C16         3.7010   -2.6360   -1.0990 C.3       1 LIG     -0.088600
     21 C17         4.0060    0.8970   -1.2710 C.a       1 LIG      0.109100
     22 O3          4.9100    0.8910   -2.2860 O.h       1 LIG     -0.510100
     23 C18         3.2570    2.0370   -1.0150 C.a       1 LIG     -0.153000
     24 C19         2.3380    2.0410    0.0160 C.a       1 LIG     -0.088000
     25 H          -4.9530    0.9560    0.2790 H         1 LIG      0.021200
     26 H1         -4.2770    0.7960   -1.3250 H         1 LIG      0.021200
     27 H2         -1.9850   -2.2870    0.9010 H         1 LIG      0.145000
     28 H3          0.0510   -2.8690    1.8160 H         1 LIG      0.037367
     29 H4          0.6970   -1.6820    2.9230 H         1 LIG      0.037367
     30 H5          1.3730   -1.8410    1.3190 H         1 LIG      0.037367
     31 H6         -2.9830    1.6970    0.0680 H         1 LIG      0.145000
     32 H7          0.2570    2.9930    1.3270 H         1 LIG      0.037367
     33 H8         -1.4300    3.4070    1.5190 H         1 LIG      0.037367
     34 H9         -0.7470    3.2460   -0.0810 H         1 LIG      0.037367
     35 H10         1.4760    0.2450    2.6840 H         1 LIG      0.045700
     36 H11         1.0710    1.9040    2.3120 H         1 LIG      0.045700
     37 H12         2.7780   -1.0690    1.1210 H         1 LIG      0.128000
     38 H13         5.2960   -1.2960   -1.5930 H         1 LIG      0.039700
     39 H14         4.8140   -2.0080    1.2980 H         1 LIG      0.035700
     40 H15         6.1250   -1.0170    0.7050 H         1 LIG      0.035700
     41 H16         6.0440   -2.7090    0.2750 H         1 LIG      0.035700
     42 H17         3.0470   -2.8140   -0.2710 H         1 LIG      0.035700
     43 H18         4.2770   -3.5160   -1.2940 H         1 LIG      0.035700
     44 H19         3.1220   -2.3890   -1.9640 H         1 LIG      0.035700
     45 H20         5.4150    0.1210   -2.4590 H         1 LIG      0.413000
     46 H21         3.3870    2.8810   -1.5950 H         1 LIG      0.147000
     47 H22         1.7810    2.8880    0.2070 H         1 LIG      0.158000
@<TRIPOS>BOND
     1    2    3 1   
     2    2    1 1   
     3    4    2 1   
     4    5    4 1   
     5    6    5 1   
     6    7    6 ar  
     7    8    7 ar  
     8    9    8 1   
     9   10   11 ar  
    10   10    8 ar  
    11   11   12 ar  
    12   12    6 ar  
    13   13   11 1   
    14   14   10 1   
    15   15   24 ar  
    16   15   14 1   
    17   16   15 ar  
    18   17   21 ar  
    19   17   16 ar  
    20   18   17 1   
    21   18   20 1   
    22   19   18 1   
    23   21   23 ar  
    24   22   21 1   
    25   23   24 ar  
    26    4   25 1   
    27    4   26 1   
    28    7   27 1   
    29    9   28 1   
    30    9   29 1   
    31    9   30 1   
    32   12   31 1   
    33   13   32 1   
    34   13   33 1   
    35   13   34 1   
    36   14   35 1   
    37   14   36 1   
    38   16   37 1   
    39   18   38 1   
    40   19   39 1   
    41   19   40 1   
    42   19   41 1   
    43   20   42 1   
    44   20   43 1   
    45   20   44 1   
    46   22   45 1   
    47   23   46 1   
    48   24   47 1   
@<TRIPOS>SUBSTRUCTURE
     1 LIG         1 TEMP              0 ****  ****    0 ROOT
