@<TRIPOS>MOLECULE
ZEC
   20    21     1     0     0
SMALL
bcc


@<TRIPOS>ATOM
      1 O           5.0970   -0.3420    0.0190 O.h       1 LIG     -0.488100
      2 C           3.7810   -0.0020    0.0150 C.a       1 LIG      0.161100
      3 C1          2.8020   -0.9840    0.0140 C.a       1 LIG     -0.202000
      4 C2          1.4790   -0.6170    0.0100 C.a       1 LIG     -0.071100
      5 S          -0.0710   -1.4870    0.0070 S.3       1 LIG      0.189900
      6 C3         -1.1330   -0.0490    0.0020 C.c       1 LIG      0.028600
      7 S1         -2.8940    0.0230   -0.0040 S.y       1 LIG      1.481000
      8 N          -3.3230    1.6220   -0.0080 N.3       1 LIG     -1.017700
      9 O1         -3.2970   -0.4880   -1.2670 O.3       1 LIG     -0.645800
     10 O2         -3.3050   -0.4840    1.2580 O.3       1 LIG     -0.645800
     11 N1         -0.2740    0.9330   -0.0030 N.d       1 LIG     -0.439100
     12 C4          1.0620    0.7340    0.0070 C.a       1 LIG      0.031400
     13 C5          2.0910    1.7050    0.0080 C.a       1 LIG     -0.028000
     14 C6          3.3990    1.3370    0.0120 C.a       1 LIG     -0.156000
     15 H           5.3480   -1.2450    0.0210 H         1 LIG      0.426000
     16 H1          3.0660   -1.9820    0.0160 H         1 LIG      0.145000
     17 H2         -3.0520    2.0450   -0.8960 H         1 LIG      0.456300
     18 H3         -2.8490    2.1030    0.7560 H         1 LIG      0.456300
     19 H4          1.8450    2.7070    0.0060 H         1 LIG      0.158000
     20 H5          4.1270    2.0680    0.0130 H         1 LIG      0.160000
@<TRIPOS>BOND
     1    1    2 1   
     2    2    3 ar  
     3    2   14 ar  
     4    3    4 ar  
     5    4    5 1   
     6    4   12 ar  
     7    5    6 1   
     8    6    7 1   
     9    6   11 2   
    10    7    8 1   
    11    7    9 2   
    12    7   10 2   
    13   11   12 1   
    14   12   13 ar  
    15   13   14 ar  
    16    1   15 1   
    17    3   16 1   
    18    8   17 1   
    19    8   18 1   
    20   13   19 1   
    21   14   20 1   
@<TRIPOS>SUBSTRUCTURE
     1 LIG         1 TEMP              0 ****  ****    0 ROOT
