@<TRIPOS>MOLECULE
SGP
   35    38     1     0     0
SMALL
bcc


@<TRIPOS>ATOM
      1 P           1.7440   -0.0070    2.4770 p5        1 LIG      1.203200
      2 S           2.2980    1.4580    3.4850 s         1 LIG     -0.518000
      3 O           2.8980   -1.1220    2.3430 oh        1 LIG     -0.719400
      4 O1         -4.2590   -0.8430    2.8290 oh        1 LIG     -0.580800
      5 C          -3.0960   -0.0450    3.0570 c3        1 LIG      0.114400
      6 C1         -1.9030   -0.6620    2.3250 c3        1 LIG      0.069100
      7 O2         -2.1560   -0.6880    0.9110 os        1 LIG     -0.410600
      8 C2         -0.6430    0.1980    2.5520 c3        1 LIG      0.119100
      9 O3          0.3850   -0.6570    3.1030 os        1 LIG     -0.503200
     10 C3         -0.1960    0.5930    1.1210 c3        1 LIG      0.110100
     11 O4          1.2300    0.4650    1.0080 os        1 LIG     -0.496200
     12 C4         -0.8890   -0.4810    0.2510 c3        1 LIG      0.253800
     13 N          -1.0920    0.0110   -1.1130 na        1 LIG     -0.244900
     14 C5         -2.1700    0.7170   -1.5640 cc        1 LIG      0.406400
     15 N1         -2.0200    0.9910   -2.8270 nd        1 LIG     -0.575000
     16 C6         -0.8420    0.4790   -3.2600 cd        1 LIG      0.176800
     17 C7         -0.1720    0.4690   -4.5060 c         1 LIG      0.652000
     18 O5         -0.6620    1.0070   -5.4840 o         1 LIG     -0.588500
     19 N2          1.0270   -0.1480   -4.5840 n         1 LIG     -0.511400
     20 C8          1.5630   -0.7510   -3.4850 cd        1 LIG      0.698800
     21 N3          2.7810   -1.3740   -3.5950 nh        1 LIG     -0.900800
     22 N4          0.9510   -0.7480   -2.3230 nc        1 LIG     -0.685100
     23 C9         -0.2370   -0.1520   -2.1680 cc        1 LIG      0.117800
     24 H           3.1920   -1.3910    3.2270 ho        1 LIG      0.508000
     25 H1         -5.0160   -0.4520    3.2930 ho        1 LIG      0.411000
     26 H2         -2.8900   -0.0070    4.1060 h1        1 LIG      0.062700
     27 H3         -3.2660    0.9460    2.6910 h1        1 LIG      0.062700
     28 H4         -1.7570   -1.6530    2.7020 h1        1 LIG      0.121700
     29 H5         -0.8140    1.0350    3.1970 h1        1 LIG      0.115700
     30 H6         -0.4440    1.5980    0.8490 h1        1 LIG      0.129700
     31 H7         -0.3140   -1.3790    0.1620 h2        1 LIG      0.129700
     32 H8         -2.9820    0.9920   -0.9890 h5        1 LIG      0.072100
     33 H9          1.5160   -0.1620   -5.4380 hn        1 LIG      0.336500
     34 H10         3.2520   -1.3850   -4.4590 hn        1 LIG      0.431300
     35 H11         3.1840   -1.8100   -2.8090 hn        1 LIG      0.431300
@<TRIPOS>BOND
     1    1    2 2   
     2    1    3 1   
     3    1    9 1   
     4    1   11 1   
     5    4    5 1   
     6    5    6 1   
     7    6    7 1   
     8    6    8 1   
     9    7   12 1   
    10    8    9 1   
    11    8   10 1   
    12   10   11 1   
    13   10   12 1   
    14   12   13 1   
    15   13   14 ar  
    16   13   23 ar  
    17   14   15 ar  
    18   15   16 ar  
    19   16   17 1   
    20   16   23 ar  
    21   17   18 2   
    22   17   19 1   
    23   19   20 1   
    24   20   21 1   
    25   20   22 2   
    26   22   23 1   
    27    3   24 1   
    28    4   25 1   
    29    5   26 1   
    30    5   27 1   
    31    6   28 1   
    32    8   29 1   
    33   10   30 1   
    34   12   31 1   
    35   14   32 1   
    36   19   33 1   
    37   21   34 1   
    38   21   35 1   
@<TRIPOS>SUBSTRUCTURE
     1 LIG         1 TEMP              0 ****  ****    0 ROOT
