@<TRIPOS>MOLECULE
XYQ
   62    65     1     0     0
SMALL
bcc


@<TRIPOS>ATOM
      1 O          -7.8890    1.0420   -3.1340 o         1 LIG     -0.578000
      2 C          -8.3610    1.9310   -2.4640 c         1 LIG      0.652100
      3 C1         -8.7750    3.2260   -3.1150 c3        1 LIG     -0.153100
      4 O1         -8.5160    1.7640   -1.1420 os        1 LIG     -0.443900
      5 C2         -8.1180    0.5170   -0.5150 c3        1 LIG      0.295900
      6 C3         -8.6190    0.4800    0.9450 c3        1 LIG      0.122100
      7 C4         -7.4250   -0.1860    1.6850 c3        1 LIG      0.124100
      8 O2         -7.3630    0.2370    3.0490 oh        1 LIG     -0.647800
      9 O3         -8.8520    1.8000    1.4390 oh        1 LIG     -0.597800
     10 O4         -6.6890    0.4220   -0.4860 os        1 LIG     -0.431600
     11 C5         -6.2280    0.3700    0.8730 c3        1 LIG      0.071100
     12 C6         -5.0240   -0.5680    0.9900 c3        1 LIG      0.223400
     13 O5         -3.9170   -0.0120    0.2770 os        1 LIG     -0.573200
     14 P          -2.6930   -1.0450    0.4420 p5        1 LIG      1.557800
     15 O6         -3.0590   -2.4320   -0.2890 o         1 LIG     -0.880500
     16 O7         -2.4470   -1.2940    1.8800 o         1 LIG     -0.880500
     17 O8         -1.3690   -0.4190   -0.2280 os        1 LIG     -0.695800
     18 P1         -0.1220   -1.2860    0.3070 p5        1 LIG      1.516800
     19 O9          0.1930   -0.8870    1.8340 o         1 LIG     -0.857000
     20 O10         1.1700   -0.9860   -0.6050 os        1 LIG     -0.573200
     21 C7          2.2040   -1.8660   -0.1590 c3        1 LIG      0.199400
     22 C8          3.4680   -1.6310   -0.9880 c3        1 LIG      0.075100
     23 O11         3.9940   -0.3210   -0.7160 os        1 LIG     -0.424600
     24 C9          5.4320   -0.4190   -0.8010 c3        1 LIG      0.210800
     25 N           6.0680    0.6800   -0.0700 na        1 LIG     -0.251000
     26 C10         5.5160    1.3970    0.9490 cc        1 LIG      0.440700
     27 N1          6.3590    2.2960    1.3680 nd        1 LIG     -0.582100
     28 C11         7.5020    2.2140    0.6450 ca        1 LIG     -0.211200
     29 C12         7.3310    1.1720   -0.2830 ca        1 LIG      0.449800
     30 N2          8.3190    0.8900   -1.1250 nb        1 LIG     -0.707000
     31 C13         9.4480    1.5670   -1.0880 ca        1 LIG      0.651900
     32 N3          9.6560    2.5500   -0.2310 nb        1 LIG     -0.802000
     33 C14         8.7240    2.9080    0.6460 ca        1 LIG      0.708200
     34 N4          8.9520    3.9390    1.5410 nh        1 LIG     -0.933500
     35 C15         5.7430   -1.7800   -0.1270 c3        1 LIG      0.106100
     36 C16         4.5510   -2.6540   -0.5950 c3        1 LIG      0.092100
     37 O12         4.9270   -3.4510   -1.7200 oh        1 LIG     -0.660800
     38 O13         6.9820   -2.3120   -0.6000 oh        1 LIG     -0.609800
     39 O14        -0.4550   -2.7260    0.2310 o         1 LIG     -0.857000
     40 H          -8.5780    3.1760   -4.1650 hc        1 LIG      0.066033
     41 H1         -8.2200    4.0340   -2.6860 hc        1 LIG      0.066033
     42 H2         -9.8210    3.3870   -2.9550 hc        1 LIG      0.066033
     43 H3         -8.5370   -0.2920   -1.0760 h2        1 LIG      0.089700
     44 H4         -9.5470   -0.0390    1.0690 h1        1 LIG      0.066700
     45 H5         -7.4720   -1.2540    1.7300 h1        1 LIG      0.092700
     46 H6         -7.3180    1.2050    3.0860 ho        1 LIG      0.498000
     47 H7         -8.0410    2.3250    1.3540 ho        1 LIG      0.434000
     48 H8         -5.9130    1.3290    1.2280 h1        1 LIG      0.085700
     49 H9         -5.2730   -1.5220    0.5750 h1        1 LIG      0.012200
     50 H10        -4.7620   -0.6860    2.0210 h1        1 LIG      0.012200
     51 H11         1.8840   -2.8800   -0.2770 h1        1 LIG      0.017200
     52 H12         2.4140   -1.6750    0.8730 h1        1 LIG      0.017200
     53 H13         3.2140   -1.7290   -2.0230 h1        1 LIG      0.105700
     54 H14         5.7970   -0.3580   -1.8050 h2        1 LIG      0.102700
     55 H15         4.5690    1.2490    1.3320 h5        1 LIG      0.102800
     56 H16        10.1980    1.3200   -1.7530 h5        1 LIG      0.033100
     57 H17         8.2530    4.1950    2.1860 hn        1 LIG      0.413300
     58 H18         9.8130    4.4170    1.5330 hn        1 LIG      0.413300
     59 H19         5.8450   -1.7220    0.9370 h1        1 LIG      0.075700
     60 H20         4.2160   -3.3360    0.1590 h1        1 LIG      0.157700
     61 H21         5.2400   -2.8740   -2.4350 ho        1 LIG      0.496000
     62 H22         6.9530   -2.3900   -1.5660 ho        1 LIG      0.433000
@<TRIPOS>BOND
     1    1    2 2   
     2    2    3 1   
     3    2    4 1   
     4    4    5 1   
     5    5    6 1   
     6    5   10 1   
     7    6    7 1   
     8    6    9 1   
     9    7    8 1   
    10    7   11 1   
    11   10   11 1   
    12   11   12 1   
    13   12   13 1   
    14   13   14 1   
    15   14   15 1   
    16   14   16 1   
    17   14   17 1   
    18   17   18 1   
    19   18   19 1   
    20   18   20 1   
    21   18   39 1   
    22   20   21 1   
    23   21   22 1   
    24   22   23 1   
    25   22   36 1   
    26   23   24 1   
    27   24   25 1   
    28   24   35 1   
    29   25   26 1   
    30   25   29 1   
    31   26   27 2   
    32   27   28 1   
    33   28   29 ar  
    34   28   33 ar  
    35   29   30 ar  
    36   30   31 ar  
    37   31   32 ar  
    38   32   33 ar  
    39   33   34 1   
    40   35   36 1   
    41   35   38 1   
    42   36   37 1   
    43    3   40 1   
    44    3   41 1   
    45    3   42 1   
    46    5   43 1   
    47    6   44 1   
    48    7   45 1   
    49    8   46 1   
    50    9   47 1   
    51   11   48 1   
    52   12   49 1   
    53   12   50 1   
    54   21   51 1   
    55   21   52 1   
    56   22   53 1   
    57   24   54 1   
    58   26   55 1   
    59   31   56 1   
    60   34   57 1   
    61   34   58 1   
    62   35   59 1   
    63   36   60 1   
    64   37   61 1   
    65   38   62 1   
@<TRIPOS>SUBSTRUCTURE
     1 LIG         1 TEMP              0 ****  ****    0 ROOT
