@<TRIPOS>MOLECULE
ITE
   25    27     1     0     0
SMALL
bcc


@<TRIPOS>ATOM
      1 N          -2.6440   -1.6750   -0.0000 N.c       1 LIG     -0.609100
      2 N1          4.3890   -0.2750   -0.0000 N.h       1 LIG     -0.773200
      3 C           0.9160    0.4560    0.0000 C.a       1 LIG     -0.106200
      4 C1          3.0130   -0.2600    0.0000 C.c       1 LIG      0.611700
      5 C2          5.1350    0.9850   -0.0010 C.3       1 LIG      0.165100
      6 C3          0.9430   -0.9540    0.0000 C.a       1 LIG      0.131400
      7 C4         -0.2490   -1.6780    0.0000 C.a       1 LIG     -0.081000
      8 C5         -3.7810   -1.0500   -0.0010 C.d       1 LIG      0.481800
      9 C6         -1.4620   -1.0030    0.0000 C.a       1 LIG      0.160400
     10 C7         -1.4800    0.4140    0.0000 C.a       1 LIG     -0.183600
     11 C8         -0.2870    1.1330    0.0010 C.a       1 LIG     -0.057000
     12 N2          2.2420    0.8660    0.0000 N.a       1 LIG     -0.286300
     13 N3          2.2490   -1.3260    0.0000 N.d       1 LIG     -0.617100
     14 C9         -2.7850    1.0870    0.0000 C.        1 LIG      0.707100
     15 O          -2.8700    2.3010   -0.0000 O.3       1 LIG     -0.630500
     16 N4         -3.8900    0.3060   -0.0000 N.        1 LIG     -0.502400
     17 H           4.8720   -1.1330    0.0010 H         1 LIG      0.426800
     18 H1          4.4490    1.8060   -0.0020 H         1 LIG      0.046700
     19 H2          5.7510    1.0340   -0.8750 H         1 LIG      0.046700
     20 H3          5.7510    1.0360    0.8730 H         1 LIG      0.046700
     21 H4         -0.2290   -2.7100    0.0000 H         1 LIG      0.170000
     22 H5         -4.6470   -1.6110   -0.0030 H         1 LIG      0.051800
     23 H6         -0.3020    2.1650    0.0030 H         1 LIG      0.163000
     24 H7          2.5660    1.7960    0.0000 H         1 LIG      0.299700
     25 H8         -4.7820    0.7230    0.0010 H         1 LIG      0.337500
@<TRIPOS>BOND
     1    1    8 2   
     2    2    4 1   
     3    3   11 ar  
     4    4   13 2   
     5    4   12 1   
     6    5    2 1   
     7    6    3 ar  
     8    6    7 ar  
     9    7    9 ar  
    10    8   16 1   
    11    9    1 1   
    12    9   10 ar  
    13   10   14 1   
    14   11   10 ar  
    15   12    3 1   
    16   13    6 1   
    17   14   15 2   
    18   14   16 1   
    19    2   17 1   
    20    5   18 1   
    21    5   19 1   
    22    5   20 1   
    23    7   21 1   
    24    8   22 1   
    25   11   23 1   
    26   12   24 1   
    27   16   25 1   
@<TRIPOS>SUBSTRUCTURE
     1 LIG         1 TEMP              0 ****  ****    0 ROOT
