@<TRIPOS>MOLECULE
C8E
   55    54     1     0     0
SMALL
bcc


@<TRIPOS>ATOM
      1 C          -2.2830   -0.7750   10.1630 c3        1 LIG     -0.093100
      2 C1         -1.8270    0.2380    9.1120 c3        1 LIG     -0.080400
      3 C2         -1.2280   -0.5030    7.9140 c3        1 LIG     -0.079400
      4 C3         -0.7720    0.5100    6.8630 c3        1 LIG     -0.079400
      5 C4         -0.1740   -0.2300    5.6660 c3        1 LIG     -0.078400
      6 C5          0.2810    0.7830    4.6140 c3        1 LIG     -0.078400
      7 C6          0.8800    0.0420    3.4170 c3        1 LIG     -0.083400
      8 C7          1.3360    1.0550    2.3660 c3        1 LIG      0.132400
      9 O           1.8950    0.3630    1.2480 os        1 LIG     -0.428600
     10 C8          2.3000    1.3590    0.3060 c3        1 LIG      0.126400
     11 C9          2.9100    0.6810   -0.9210 c3        1 LIG      0.127400
     12 O1          1.9390   -0.1770   -1.5240 os        1 LIG     -0.429600
     13 C10         2.5660   -0.7770   -2.6590 c3        1 LIG      0.127400
     14 C11         1.5750   -1.7140   -3.3530 c3        1 LIG      0.127400
     15 O2          0.4330   -0.9680   -3.7790 os        1 LIG     -0.428600
     16 C12        -0.4490   -1.8930   -4.4160 c3        1 LIG      0.127400
     17 C13        -1.7000   -1.1540   -4.8980 c3        1 LIG      0.128400
     18 O3         -1.3230   -0.1370   -5.8280 os        1 LIG     -0.438600
     19 C14        -2.5270    0.5120   -6.2400 c3        1 LIG      0.087400
     20 C15        -2.1930    1.6180   -7.2420 c3        1 LIG      0.131400
     21 O4         -1.5460    1.0490   -8.3820 oh        1 LIG     -0.600800
     22 H          -2.7020   -0.2570   11.0000 hc        1 LIG      0.032700
     23 H1         -1.4440   -1.3560   10.4860 hc        1 LIG      0.032700
     24 H2         -3.0220   -1.4220    9.7380 hc        1 LIG      0.032700
     25 H3         -1.0880    0.8850    9.5370 hc        1 LIG      0.038700
     26 H4         -2.6660    0.8180    8.7890 hc        1 LIG      0.038700
     27 H5         -1.9670   -1.1500    7.4890 hc        1 LIG      0.039700
     28 H6         -0.3890   -1.0830    8.2370 hc        1 LIG      0.039700
     29 H7         -0.0330    1.1560    7.2880 hc        1 LIG      0.039200
     30 H8         -1.6110    1.0900    6.5400 hc        1 LIG      0.039200
     31 H9         -0.9130   -0.8770    5.2420 hc        1 LIG      0.041700
     32 H10         0.6650   -0.8100    5.9890 hc        1 LIG      0.041700
     33 H11         1.0200    1.4310    5.0380 hc        1 LIG      0.040200
     34 H12        -0.5580    1.3630    4.2910 hc        1 LIG      0.040200
     35 H13         0.1410   -0.6050    2.9920 hc        1 LIG      0.054700
     36 H14         1.7190   -0.5380    3.7400 hc        1 LIG      0.054700
     37 H15         2.0750    1.7020    2.7910 h1        1 LIG      0.025700
     38 H16         0.4970    1.6350    2.0430 h1        1 LIG      0.025700
     39 H17         3.0270    2.0020    0.7570 h1        1 LIG      0.042200
     40 H18         1.4490    1.9360    0.0090 h1        1 LIG      0.042200
     41 H19         3.7600    0.1040   -0.6240 h1        1 LIG      0.043700
     42 H20         3.2140    1.4260   -1.6260 h1        1 LIG      0.043700
     43 H21         3.4210   -1.3350   -2.3400 h1        1 LIG      0.043700
     44 H22         2.8730   -0.0130   -3.3420 h1        1 LIG      0.043700
     45 H23         1.2680   -2.4780   -2.6700 h1        1 LIG      0.044200
     46 H24         2.0450   -2.1640   -4.2030 h1        1 LIG      0.044200
     47 H25        -0.7310   -2.6550   -3.7200 h1        1 LIG      0.043200
     48 H26         0.0460   -2.3410   -5.2520 h1        1 LIG      0.043200
     49 H27        -2.1950   -0.7070   -4.0610 h1        1 LIG      0.045200
     50 H28        -2.3620   -1.8460   -5.3750 h1        1 LIG      0.045200
     51 H29        -3.0120    0.9380   -5.3870 h1        1 LIG      0.039200
     52 H30        -3.1770   -0.2020   -6.7010 h1        1 LIG      0.039200
     53 H31        -1.5420    2.3320   -6.7820 h1        1 LIG      0.053200
     54 H32        -3.0950    2.1040   -7.5500 h1        1 LIG      0.053200
     55 H33        -0.7280    0.6080   -8.1030 ho        1 LIG      0.412000
@<TRIPOS>BOND
     1    1    2 1   
     2    2    3 1   
     3    3    4 1   
     4    4    5 1   
     5    5    6 1   
     6    6    7 1   
     7    7    8 1   
     8    8    9 1   
     9    9   10 1   
    10   10   11 1   
    11   11   12 1   
    12   12   13 1   
    13   13   14 1   
    14   14   15 1   
    15   15   16 1   
    16   16   17 1   
    17   17   18 1   
    18   18   19 1   
    19   19   20 1   
    20   20   21 1   
    21    1   22 1   
    22    1   23 1   
    23    1   24 1   
    24    2   25 1   
    25    2   26 1   
    26    3   27 1   
    27    3   28 1   
    28    4   29 1   
    29    4   30 1   
    30    5   31 1   
    31    5   32 1   
    32    6   33 1   
    33    6   34 1   
    34    7   35 1   
    35    7   36 1   
    36    8   37 1   
    37    8   38 1   
    38   10   39 1   
    39   10   40 1   
    40   11   41 1   
    41   11   42 1   
    42   13   43 1   
    43   13   44 1   
    44   14   45 1   
    45   14   46 1   
    46   16   47 1   
    47   16   48 1   
    48   17   49 1   
    49   17   50 1   
    50   19   51 1   
    51   19   52 1   
    52   20   53 1   
    53   20   54 1   
    54   21   55 1   
@<TRIPOS>SUBSTRUCTURE
     1 LIG         1 TEMP              0 ****  ****    0 ROOT
