@<TRIPOS>MOLECULE
1RG
   59    61     1     0     0
SMALL
bcc


@<TRIPOS>ATOM
      1 C          -3.3420    0.4270    0.6870 C.        1 LIG      0.650100
      2 N          -1.2880   -0.6110    1.5330 N.4       1 LIG     -0.741000
      3 O          -3.7300   -0.6950    0.4370 O.3       1 LIG     -0.589100
      4 C1         -1.9060    0.6550    1.0870 C.3       1 LIG      0.029500
      5 C2         -1.0690    1.0930   -0.1410 C.3       1 LIG     -0.079400
      6 C3          0.1130   -0.6370    1.0750 C.3       1 LIG      0.116800
      7 C4          0.3600    0.6670    0.2870 C.3       1 LIG     -0.068600
      8 C5          6.2670    0.8790   -1.1260 C.        1 LIG      0.577900
      9 C6          6.2270    0.9880    0.3770 C.3       1 LIG     -0.235700
     10 O1          6.3980    1.8730   -1.7990 O.3       1 LIG     -0.541100
     11 C7          4.9740    0.2870    0.9060 C.3       1 LIG      0.192500
     12 C8          7.4710    0.3220    0.9700 C.3       1 LIG      0.144100
     13 C9          7.4310    0.4320    2.4950 C.3       1 LIG     -0.131100
     14 O2          7.5000   -1.0560    0.5920 O.h       1 LIG     -0.594800
     15 C10         3.7090    1.0460    0.4650 C.3       1 LIG     -0.000500
     16 C11         2.9430    0.0510   -0.3760 C.2       1 LIG     -0.295600
     17 N1          4.8380   -1.0440    0.3010 N.h       1 LIG     -0.727000
     18 S           1.3960    0.3510   -1.1630 S.3       1 LIG     -0.139700
     19 CA          3.6360   -1.1020   -0.4250 C.e       1 LIG      0.154800
     20 C12         3.2010   -2.2480   -1.1300 C.        1 LIG      0.938800
     21 C13         4.0860    2.2720   -0.3700 C.3       1 LIG     -0.090100
     22 O3          2.1970   -2.1970   -1.8150 O.3       1 LIG     -0.804800
     23 OXT         3.9010   -3.4000   -1.0440 O.3       1 LIG     -0.804800
     24 N2         -4.1920    1.4690    0.6040 N.        1 LIG     -0.423100
     25 C14        -5.4940    1.2730    0.1290 C.a       1 LIG     -0.017400
     26 C15        -6.1680    0.0980    0.4200 C.a       1 LIG     -0.137000
     27 C16        -7.4660   -0.0920   -0.0550 C.a       1 LIG     -0.111600
     28 C17        -8.0770    0.9040   -0.8210 C.a       1 LIG     -0.103000
     29 C18        -7.3960    2.0700   -1.1060 C.a       1 LIG     -0.147000
     30 C19        -6.1120    2.2600   -0.6300 C.a       1 LIG     -0.146000
     31 C20        -8.1930   -1.3420    0.2500 C.        1 LIG      0.910200
     32 O4         -9.4460   -1.5230   -0.2100 O.3       1 LIG     -0.822800
     33 O5         -7.6590   -2.2060    0.9170 O.3       1 LIG     -0.822800
     34 H          -1.7950   -1.4010    1.1330 H         1 LIG      0.486300
     35 H1         -1.3230   -0.6770    2.5500 H         1 LIG      0.486300
     36 H2         -1.9120    1.3960    1.8590 H         1 LIG      0.093700
     37 H3         -1.1310    2.1500   -0.2990 H         1 LIG      0.089200
     38 H4         -1.3930    0.6620   -1.0650 H         1 LIG      0.089200
     39 H5          0.2760   -1.4840    0.4420 H         1 LIG      0.115700
     40 H6          0.7830   -0.7110    1.9060 H         1 LIG      0.115700
     41 H7          0.8710    1.4150    0.8560 H         1 LIG      0.087700
     42 H8          6.1830   -0.0440   -1.5790 H         1 LIG      0.035200
     43 H9          6.2050    2.0200    0.6590 H         1 LIG      0.089700
     44 H10         5.0710    0.2410    1.9710 H         1 LIG      0.045700
     45 H11         8.3480    0.8120    0.6000 H         1 LIG      0.092700
     46 H12         6.5540   -0.0580    2.8650 H         1 LIG      0.044033
     47 H13         7.4100    1.4640    2.7780 H         1 LIG      0.044033
     48 H14         8.3010   -0.0330    2.9090 H         1 LIG      0.044033
     49 H15         6.7050   -1.5000    0.9270 H         1 LIG      0.404000
     50 H16         3.1370    1.4030    1.2960 H         1 LIG      0.039700
     51 H17         5.4860   -1.7800    0.3900 H         1 LIG      0.445800
     52 H18         4.6620    1.9630   -1.2170 H         1 LIG      0.039033
     53 H19         4.6630    2.9460    0.2270 H         1 LIG      0.039033
     54 H20         3.1960    2.7640   -0.7040 H         1 LIG      0.039033
     55 H21        -3.8970    2.3680    0.8770 H         1 LIG      0.317500
     56 H22        -5.7120   -0.6340    0.9860 H         1 LIG      0.154000
     57 H23        -9.0370    0.7680   -1.1740 H         1 LIG      0.159000
     58 H24        -7.8470    2.8030   -1.6760 H         1 LIG      0.118000
     59 H25        -5.6110    3.1380   -0.8390 H         1 LIG      0.145000
@<TRIPOS>BOND
     1    1    3 2   
     2    1    4 1   
     3    1   24 1   
     4    2    4 1   
     5    2    6 1   
     6    4    5 1   
     7    5    7 1   
     8    6    7 1   
     9    7   18 1   
    10    8    9 1   
    11    8   10 2   
    12    9   11 1   
    13    9   12 1   
    14   11   15 1   
    15   11   17 1   
    16   12   13 1   
    17   12   14 1   
    18   15   16 1   
    19   15   21 1   
    20   16   18 1   
    21   16   19 2   
    22   17   19 1   
    23   19   20 1   
    24   20   22 1   
    25   20   23 1   
    26   24   25 1   
    27   25   26 ar  
    28   25   30 ar  
    29   26   27 ar  
    30   27   28 ar  
    31   27   31 1   
    32   28   29 ar  
    33   29   30 ar  
    34   31   32 1   
    35   31   33 1   
    36    2   34 1   
    37    2   35 1   
    38    4   36 1   
    39    5   37 1   
    40    5   38 1   
    41    6   39 1   
    42    6   40 1   
    43    7   41 1   
    44    8   42 1   
    45    9   43 1   
    46   11   44 1   
    47   12   45 1   
    48   13   46 1   
    49   13   47 1   
    50   13   48 1   
    51   14   49 1   
    52   15   50 1   
    53   17   51 1   
    54   21   52 1   
    55   21   53 1   
    56   21   54 1   
    57   24   55 1   
    58   26   56 1   
    59   28   57 1   
    60   29   58 1   
    61   30   59 1   
@<TRIPOS>SUBSTRUCTURE
     1 LIG         1 TEMP              0 ****  ****    0 ROOT
