@<TRIPOS>MOLECULE
NG6
   33    33     1     0     0
SMALL
bcc


@<TRIPOS>ATOM
      1 C           0.9260   -0.4380    1.3960 C.3       1 LIG      0.330900
      2 C1         -0.2140   -0.0350    2.3330 C.3       1 LIG      0.005700
      3 C2         -1.5320   -0.6010    1.7910 C.3       1 LIG      0.096100
      4 C3         -1.6940   -0.1540    0.3340 C.3       1 LIG      0.091100
      5 C4         -0.4410   -0.5480   -0.4520 C.3       1 LIG      0.053100
      6 C5         -0.6100   -0.1330   -1.9150 C.3       1 LIG      0.225400
      7 C6          0.7260    0.1500    4.5730 C.        1 LIG      0.664100
      8 C7          0.9850   -0.4050    5.9500 C.3       1 LIG     -0.174100
      9 N           0.0360   -0.5760    3.6720 N.        1 LIG     -0.542900
     10 O           2.1620    0.0600    1.9100 O.h       1 LIG     -0.585800
     11 O1         -2.6270   -0.1100    2.5680 O.h       1 LIG     -0.603800
     12 O2         -1.8640    1.2630    0.2840 O.h       1 LIG     -0.608800
     13 O3          0.6990    0.1060    0.0980 O.2       1 LIG     -0.458600
     14 O4          0.5550   -0.5060   -2.6530 O.2       1 LIG     -0.603500
     15 O5          1.1390    1.2510    4.2760 O.3       1 LIG     -0.625100
     16 S           0.3240   -0.0680   -4.0920 S.6       1 LIG      1.699300
     17 O6          1.1820   -0.8770   -4.8840 O.3       1 LIG     -0.751200
     18 O7         -1.0850    0.0300   -4.2430 O.3       1 LIG     -0.751200
     19 O8          0.8550    1.3510   -4.2260 O.3       1 LIG     -0.751200
     20 H           0.9680   -1.5050    1.3290 H         1 LIG      0.083700
     21 H1         -0.2740    1.0320    2.3890 H         1 LIG      0.089700
     22 H2         -1.5190   -1.6690    1.8480 H         1 LIG      0.082700
     23 H3         -2.5530   -0.6270   -0.0950 H         1 LIG      0.117700
     24 H4         -0.3030   -1.6070   -0.3910 H         1 LIG      0.112700
     25 H5         -0.7440    0.9270   -1.9720 H         1 LIG      0.035200
     26 H6         -1.4660   -0.6230   -2.3280 H         1 LIG      0.035200
     27 H7          0.5500   -1.3790    6.0290 H         1 LIG      0.060367
     28 H8          0.5490    0.2410    6.6830 H         1 LIG      0.060367
     29 H9          2.0400   -0.4710    6.1150 H         1 LIG      0.060367
     30 H10        -0.3000   -1.4690    3.9130 H         1 LIG      0.308500
     31 H11         2.1210    1.0270    1.9690 H         1 LIG      0.416000
     32 H12        -2.6470    0.8590    2.5220 H         1 LIG      0.417000
     33 H13        -1.0870    1.6960    0.6720 H         1 LIG      0.409000
@<TRIPOS>BOND
     1    1    2 1   
     2    1   10 1   
     3    1   13 1   
     4    2    3 1   
     5    2    9 1   
     6    3    4 1   
     7    3   11 1   
     8    4    5 1   
     9    4   12 1   
    10    5    6 1   
    11    5   13 1   
    12    6   14 1   
    13    7    8 1   
    14    7    9 1   
    15    7   15 2   
    16   14   16 1   
    17   16   17 1   
    18   16   18 1   
    19   16   19 1   
    20    1   20 1   
    21    2   21 1   
    22    3   22 1   
    23    4   23 1   
    24    5   24 1   
    25    6   25 1   
    26    6   26 1   
    27    8   27 1   
    28    8   28 1   
    29    8   29 1   
    30    9   30 1   
    31   10   31 1   
    32   11   32 1   
    33   12   33 1   
@<TRIPOS>SUBSTRUCTURE
     1 LIG         1 TEMP              0 ****  ****    0 ROOT
