@<TRIPOS>MOLECULE
PGU
   41    41     1     0     0
SMALL
bcc


@<TRIPOS>ATOM
      1 N           6.2140    2.5580    2.4790 nb        0 UNK     -0.783000
      2 C           6.1750    3.6990    1.7560 ca        0 UNK      0.383600
      3 C1          7.3610    4.5970    1.8910 c3        0 UNK     -0.115400
      4 C2          5.1230    4.0570    0.9280 ca        0 UNK     -0.120200
      5 O           5.1470    5.2210    0.2270 oh        0 UNK     -0.539100
      6 C3          4.0470    3.1860    0.8400 ca        0 UNK      0.115700
      7 C4          2.8820    3.5280   -0.0440 c3        0 UNK     -0.319900
      8 C5          4.0460    2.0040    1.5650 ca        0 UNK     -0.330600
      9 C6          5.1450    1.7370    2.3640 ca        0 UNK      0.421200
     10 C7          2.9150    1.0360    1.5050 c3        0 UNK      0.232700
     11 O1          3.1480    0.0980    0.4600 os        0 UNK     -0.600200
     12 P           2.0460   -1.0560    0.2060 p5        0 UNK      1.348900
     13 O2          2.3640   -2.0050   -0.9120 o         0 UNK     -0.730500
     14 O3          0.6610   -0.2370    0.0450 o         0 UNK     -0.730500
     15 O4          1.9050   -1.7410    1.6640 o         0 UNK     -0.730500
     16 N           1.8640    4.2850    0.6670 n4        1 GLU     -0.620000
     17 CA          0.7420    4.5990   -0.2150 c3        1 GLU     -0.013500
     18 CB         -0.4060    5.3000    0.5320 c3        1 GLU     -0.066400
     19 CG         -0.9350    4.5870    1.7800 c3        1 GLU     -0.193400
     20 CD         -1.5720    3.2500    1.4960 c         1 GLU      0.908600
     21 OE2        -1.5200    2.4090    2.5590 o         1 GLU     -0.870800
     22 OE1        -2.0730    2.9460    0.4210 o         1 GLU     -0.870800
     23 C           1.2680    5.4340   -1.3680 c         1 GLU      0.912600
     24 O           0.6110    5.1690   -2.5290 o         1 GLU     -0.829800
     25 OXT         2.1720    6.2570   -1.2950 o         1 GLU     -0.829800
     26 H           8.0650    4.1590    2.5670 hc        0 UNK      0.021033
     27 H3          7.0470    5.5480    2.2690 hc        0 UNK      0.021033
     28 H4          7.8200    4.7280    0.9330 hc        0 UNK      0.021033
     29 H5          4.4280    5.4480   -0.3290 ho        0 UNK      0.409000
     30 H6          3.2340    4.1120   -0.8690 hx        0 UNK      0.148700
     31 H7          2.4410    2.6130   -0.3790 hx        0 UNK      0.148700
     32 H8          5.1490    0.8580    2.9050 h4        0 UNK      0.017100
     33 H9          2.0040    1.5630    1.3140 h1        0 UNK      0.038200
     34 H10         2.8390    0.5180    2.4380 h1        0 UNK      0.038200
     35 H1          2.2720    5.1540    1.0110 hn        1 GLU      0.424800
     36 H2          1.5210    3.7220    1.4450 hn        1 GLU      0.424800
     37 HA          0.3200    3.6920   -0.5930 hx        1 GLU      0.080700
     38 HB1        -1.2220    5.4100   -0.1520 hc        1 GLU      0.063200
     39 HB2         0.0030    6.2250    0.8820 hc        1 GLU      0.063200
     40 HG1        -1.6650    5.2170    2.2440 hc        1 GLU      0.024700
     41 HG2        -0.0920    4.4010    2.4120 hc        1 GLU      0.024700
@<TRIPOS>BOND
     1    1    9 ar  
     2    2    3 1   
     3    2    1 ar  
     4    4    6 ar  
     5    4    2 ar  
     6    5    4 1   
     7    6    8 ar  
     8    7   16 1   
     9    7    6 1   
    10    8   10 1   
    11    8    9 ar  
    12   11   10 1   
    13   12   11 1   
    14   12   15 1   
    15   13   12 1   
    16   14   12 1   
    17   17   18 1   
    18   17   23 1   
    19   17   16 1   
    20   18   19 1   
    21   19   20 1   
    22   20   22 1   
    23   20   21 1   
    24   23   24 1   
    25   25   23 1   
    26    3   26 1   
    27    3   27 1   
    28    3   28 1   
    29    5   29 1   
    30    7   30 1   
    31    7   31 1   
    32    9   32 1   
    33   10   33 1   
    34   10   34 1   
    35   16   35 1   
    36   16   36 1   
    37   17   37 1   
    38   18   38 1   
    39   18   39 1   
    40   19   40 1   
    41   19   41 1   
@<TRIPOS>SUBSTRUCTURE
     1 UNK         1 TEMP              0 ****  ****    0 ROOT
