@<TRIPOS>MOLECULE
ZAL
   29    29     1     0     0
SMALL
bcc


@<TRIPOS>ATOM
      1 CG          0.9450    0.3640   -0.0090 c3        1 PHE     -0.069700
      2 CD1         1.3570   -1.0770    0.3010 c3        1 PHE     -0.074900
      3 CE1         2.7660   -1.0880    0.8950 c3        1 PHE     -0.076400
      4 CZ          3.7490   -0.4820   -0.1090 c3        1 PHE     -0.078400
      5 CE2         3.3370    0.9590   -0.4180 c3        1 PHE     -0.076400
      6 CD2         1.9280    0.9700   -1.0130 c3        1 PHE     -0.074900
      7 N          -1.4900    0.8540    1.5680 n4        1 PHE     -0.836600
      8 CA         -1.4670   -0.0990    0.4510 c3        1 PHE     -0.071500
      9 CB         -0.4640    0.3750   -0.6040 c3        1 PHE     -0.094400
     10 C          -2.8390   -0.1860   -0.1650 c         1 PHE      0.935600
     11 O          -3.6390    0.7010    0.0150 o         1 PHE     -0.756800
     12 OXT        -3.1740   -1.2500   -0.9130 o         1 PHE     -0.756800
     13 HG          0.9550    0.9400    0.8930 hc        1 PHE      0.012700
     14 HD11        1.3460   -1.6530   -0.6010 hc        1 PHE      0.045700
     15 HD12        0.6700   -1.5010    1.0040 hc        1 PHE      0.045700
     16 HE11        3.0540   -2.0960    1.1120 hc        1 PHE      0.039200
     17 HE12        2.7770   -0.5120    1.7960 hc        1 PHE      0.039200
     18 HZ1         3.7380   -1.0580   -1.0110 hc        1 PHE      0.044200
     19 HZ2         4.7350   -0.4900    0.3070 hc        1 PHE      0.044200
     20 HE21        4.0240    1.3840   -1.1200 hc        1 PHE      0.039200
     21 HE22        3.3480    1.5340    0.4840 hc        1 PHE      0.039200
     22 HD21        1.6400    1.9780   -1.2300 hc        1 PHE      0.045700
     23 HD22        1.9170    0.3940   -1.9150 hc        1 PHE      0.045700
     24 H1         -0.5610    0.9120    1.9840 hn        1 PHE      0.443133
     25 H2         -2.1580    0.5380    2.2710 hn        1 PHE      0.443133
     26 H3         -1.7670    1.7740    1.2250 hn        1 PHE      0.443133
     27 HA         -1.1770   -1.0630    0.8120 hx        1 PHE      0.090700
     28 HB1        -0.4990   -0.2800   -1.4490 hc        1 PHE      0.085700
     29 HB2        -0.7130    1.3690   -0.9120 hc        1 PHE      0.085700
@<TRIPOS>BOND
     1    1    2 1   
     2    1    6 1   
     3    1    9 1   
     4    2    3 1   
     5    3    4 1   
     6    4    5 1   
     7    5    6 1   
     8    7    8 1   
     9    8    9 1   
    10    8   10 1   
    11   10   11 1   
    12   10   12 1   
    13    1   13 1   
    14    2   14 1   
    15    2   15 1   
    16    3   16 1   
    17    3   17 1   
    18    4   18 1   
    19    4   19 1   
    20    5   20 1   
    21    5   21 1   
    22    6   22 1   
    23    6   23 1   
    24    7   24 1   
    25    7   25 1   
    26    7   26 1   
    27    8   27 1   
    28    9   28 1   
    29    9   29 1   
@<TRIPOS>SUBSTRUCTURE
     1 PHE         1 TEMP              0 ****  ****    0 ROOT
