@<TRIPOS>MOLECULE
8YB
   56    59     1     0     0
SMALL
bcc


@<TRIPOS>ATOM
      1 C           8.7970    3.0780   -0.0320 c3        1 LIG     -0.077100
      2 C1          7.5790    2.1520   -0.0450 c3        1 LIG     -0.312600
      3 O           8.8350    0.0060   -1.0130 o         1 LIG     -0.650300
      4 O1          8.6490    0.2150    1.4450 o         1 LIG     -0.650300
      5 C2          5.9680   -0.7860    1.2870 ca        1 LIG     -0.013500
      6 C3          4.8000   -1.5240    1.2620 ca        1 LIG     -0.151000
      7 C4          4.3030   -1.9900    0.0590 ca        1 LIG     -0.040300
      8 C5          4.9740   -1.7170   -1.1190 ca        1 LIG     -0.151000
      9 C6          6.1420   -0.9780   -1.0930 ca        1 LIG     -0.013500
     10 C7          3.0290   -2.7950    0.0310 c3        1 LIG     -0.115100
     11 C8          1.8520   -1.8670   -0.1310 c         1 LIG      0.662100
     12 C9         -0.4790   -1.5170   -0.3290 cc        1 LIG      0.490300
     13 C10        -2.1140    0.3100   -0.5980 cc        1 LIG     -0.343000
     14 C11        -2.8550    1.5070   -0.7500 c         1 LIG      0.636300
     15 C12        -3.1450    1.6990    1.7170 ca        1 LIG     -0.090000
     16 C13        -4.7900    3.9110    1.3950 ca        1 LIG     -0.129000
     17 C14        -4.0840   -1.2600   -0.6040 ca        1 LIG     -0.131500
     18 C15        -4.8840   -0.5950   -1.5350 ca        1 LIG     -0.086000
     19 C16        -6.2340   -0.8710   -1.6040 ca        1 LIG     -0.129000
     20 C17        -6.7960   -1.8050   -0.7520 ca        1 LIG     -0.111000
     21 C18        -6.0090   -2.4680    0.1740 ca        1 LIG      0.004400
     22 C19        -4.6550   -2.2050    0.2480 ca        1 LIG     -0.089000
     23 S           8.1260    0.4320    0.1420 sy        1 LIG      1.381300
     24 C20         6.6360   -0.5080    0.1090 ca        1 LIG     -0.371500
     25 O2          2.0300   -0.6710   -0.2140 o         1 LIG     -0.580100
     26 N           0.6020   -2.3680   -0.1820 n         1 LIG     -0.524400
     27 N1         -1.7180   -1.9020   -0.3840 nd        1 LIG     -0.688000
     28 C21        -2.6350   -0.9690   -0.5270 cd        1 LIG      0.488800
     29 S1         -0.3620    0.1830   -0.4580 ss        1 LIG      0.076700
     30 O3         -3.0210    1.9830   -1.8590 o         1 LIG     -0.503100
     31 C22        -3.4270    2.1780    0.4370 ca        1 LIG     -0.162600
     32 C23        -3.6850    2.3260    2.8200 ca        1 LIG     -0.131000
     33 C24        -4.5050    3.4290    2.6600 ca        1 LIG     -0.105000
     34 C25        -4.2510    3.2950    0.2820 ca        1 LIG      0.049400
     35 Cl         -4.6090    3.9000   -1.3050 cl        1 LIG     -0.074400
     36 Cl1        -6.7240   -3.6380    1.2400 cl        1 LIG     -0.098400
     37 H           8.4750    4.0920   -0.1420 hc        1 LIG      0.054700
     38 H1          9.4490    2.8210   -0.8400 hc        1 LIG      0.054700
     39 H2          9.3190    2.9680    0.8960 hc        1 LIG      0.054700
     40 H3          7.0570    2.2620   -0.9730 h1        1 LIG      0.111200
     41 H4          6.9260    2.4090    0.7630 h1        1 LIG      0.111200
     42 H5          6.3420   -0.4420    2.1850 ha        1 LIG      0.162000
     43 H6          4.2990   -1.7270    2.1410 ha        1 LIG      0.147500
     44 H7          4.6030   -2.0650   -2.0170 ha        1 LIG      0.147500
     45 H8          6.6450   -0.7770   -1.9710 ha        1 LIG      0.162000
     46 H9          2.9310   -3.3390    0.9470 hc        1 LIG      0.096700
     47 H10         3.0580   -3.4810   -0.7900 hc        1 LIG      0.096700
     48 H11        -2.5330    0.8770    1.8380 ha        1 LIG      0.147000
     49 H12        -5.4060    4.7310    1.2830 ha        1 LIG      0.152000
     50 H13        -4.4660    0.1020   -2.1710 ha        1 LIG      0.161000
     51 H14        -6.8260   -0.3800   -2.2920 ha        1 LIG      0.141000
     52 H15        -7.8060   -2.0080   -0.8070 ha        1 LIG      0.147000
     53 H16        -4.0670   -2.7070    0.9320 ha        1 LIG      0.155000
     54 H17         0.4580   -3.3400   -0.1150 hn        1 LIG      0.347500
     55 H18        -3.4770    1.9720    3.7670 ha        1 LIG      0.142000
     56 H19        -4.9060    3.8950    3.4890 ha        1 LIG      0.141000
@<TRIPOS>BOND
     1    1    2 1   
     2    2   23 1   
     3    3   23 2   
     4    5    6 ar  
     5    7    6 ar  
     6    7   10 1   
     7    8    7 ar  
     8    9   24 ar  
     9    9    8 ar  
    10   11   10 1   
    11   11   25 2   
    12   12   26 1   
    13   12   29 ar  
    14   13   29 ar  
    15   14   13 1   
    16   14   30 2   
    17   15   31 ar  
    18   16   34 ar  
    19   17   28 1   
    20   18   17 ar  
    21   19   18 ar  
    22   20   21 ar  
    23   20   19 ar  
    24   21   22 ar  
    25   22   17 ar  
    26   23    4 2   
    27   23   24 1   
    28   24    5 ar  
    29   26   11 1   
    30   27   12 ar  
    31   28   27 ar  
    32   28   13 ar  
    33   31   14 1   
    34   32   15 ar  
    35   33   32 ar  
    36   33   16 ar  
    37   34   31 ar  
    38   34   35 1   
    39   36   21 1   
    40    1   37 1   
    41    1   38 1   
    42    1   39 1   
    43    2   40 1   
    44    2   41 1   
    45    5   42 1   
    46    6   43 1   
    47    8   44 1   
    48    9   45 1   
    49   10   46 1   
    50   10   47 1   
    51   15   48 1   
    52   16   49 1   
    53   18   50 1   
    54   19   51 1   
    55   20   52 1   
    56   22   53 1   
    57   26   54 1   
    58   32   55 1   
    59   33   56 1   
@<TRIPOS>SUBSTRUCTURE
     1 LIG         1 TEMP              0 ****  ****    0 ROOT
