@<TRIPOS>MOLECULE
SUV
   55    59     1     0     0
SMALL
bcc


@<TRIPOS>ATOM
      1 C          -1.7830    1.0170   -0.4560 C.c       1 LIG      0.759500
      2 N          -0.4800    1.3870   -0.7040 N.h       1 LIG     -0.687600
      3 O          -2.7510    1.8470   -0.0300 O.2       1 LIG     -0.323700
      4 Cl         -7.0830   -2.0540    0.2040 C.l       1 LIG     -0.095400
      5 N1         -2.2600   -0.1920   -0.6050 N.d       1 LIG     -0.621100
      6 O1          3.8870    1.3380    0.2830 O.3       1 LIG     -0.581100
      7 C1         -3.5790   -0.1850   -0.2690 C.a       1 LIG      0.106400
      8 N2          2.2140    1.3620   -1.1770 N.        1 LIG     -0.467800
      9 C2         -4.5700   -1.1660   -0.2360 C.a       1 LIG     -0.085000
     10 N3          2.8530   -0.8550    1.9360 N.a       1 LIG      0.296800
     11 C3         -5.8480   -0.8350    0.1630 C.a       1 LIG      0.012400
     12 N4          2.6580    0.4090    2.0660 N.d       1 LIG     -0.474800
     13 C4         -6.1520    0.4670    0.5310 C.a       1 LIG     -0.127000
     14 N5          2.8300   -1.4410    3.0810 N.d       1 LIG     -0.474800
     15 C5         -5.1800    1.4470    0.5020 C.a       1 LIG     -0.101000
     16 C6         -3.8940    1.1330    0.0970 C.a       1 LIG      0.017100
     17 C7         -0.1000    1.0650   -2.0630 C.3       1 LIG      0.192800
     18 C8          1.3600    0.5750   -2.0910 C.3       1 LIG      0.062000
     19 C9          2.1170    2.8000   -1.0540 C.3       1 LIG      0.117700
     20 C10         1.0740    3.1560    0.0370 C.3       1 LIG     -0.135400
     21 C11        -0.2800    2.8110   -0.4370 C.3       1 LIG      0.199800
     22 C12         3.1250    0.7110   -0.4260 C.        1 LIG      0.688700
     23 C13         3.1960   -0.7630   -0.4650 C.a       1 LIG     -0.121600
     24 C14         3.0580   -1.5070    0.7160 C.a       1 LIG      0.075800
     25 C15         3.1270   -2.8910    0.6680 C.a       1 LIG     -0.117000
     26 C16         3.3300   -3.5330   -0.5380 C.a       1 LIG     -0.110000
     27 C17         3.4670   -2.8020   -1.7060 C.a       1 LIG     -0.079300
     28 C18         3.3950   -1.4240   -1.6770 C.a       1 LIG     -0.101000
     29 C19         2.4970    0.6830    3.3400 C.c       1 LIG      0.204900
     30 C20         2.6160   -0.5380    4.0120 C.c       1 LIG      0.204900
     31 C21         3.6880   -3.5140   -3.0160 C.3       1 LIG     -0.055800
     32 C22         3.4810    3.3720   -0.6620 C.3       1 LIG     -0.100100
     33 H          -4.3480   -2.1360   -0.5090 H         1 LIG      0.165000
     34 H1         -7.1110    0.7050    0.8290 H         1 LIG      0.150000
     35 H2         -5.4120    2.4130    0.7820 H         1 LIG      0.153000
     36 H3         -0.1940    1.9380   -2.6750 H         1 LIG      0.073200
     37 H4         -0.7400    0.2930   -2.4370 H         1 LIG      0.073200
     38 H5          1.3870   -0.4530   -1.7940 H         1 LIG      0.061700
     39 H6          1.7350    0.6940   -3.0860 H         1 LIG      0.061700
     40 H7          1.8110    3.2180   -1.9900 H         1 LIG      0.042700
     41 H8          1.1210    4.2040    0.2450 H         1 LIG      0.071700
     42 H9          1.2890    2.6020    0.9270 H         1 LIG      0.071700
     43 H10        -0.9840    3.1140    0.3100 H         1 LIG      0.066700
     44 H11        -0.4170    3.3190   -1.3680 H         1 LIG      0.066700
     45 H12         3.0260   -3.4420    1.5350 H         1 LIG      0.161000
     46 H13         3.3800   -4.5630   -0.5690 H         1 LIG      0.142000
     47 H14         3.4880   -0.8830   -2.5510 H         1 LIG      0.146000
     48 H15         2.3190    1.6090    3.7590 H         1 LIG      0.058100
     49 H16         2.5500   -0.6970    5.0290 H         1 LIG      0.058100
     50 H17         3.7160   -4.5700   -2.8480 H         1 LIG      0.049033
     51 H18         4.6160   -3.1960   -3.4430 H         1 LIG      0.049033
     52 H19         2.8880   -3.2810   -3.6880 H         1 LIG      0.049033
     53 H20         3.7870    2.9540    0.2740 H         1 LIG      0.050700
     54 H21         3.4090    4.4360   -0.5710 H         1 LIG      0.050700
     55 H22         4.2000    3.1260   -1.4150 H         1 LIG      0.050700
@<TRIPOS>BOND
     1    1    5 2   
     2    2    1 1   
     3    2   21 1   
     4    3   16 1   
     5    3    1 1   
     6    7    5 1   
     7    7    9 ar  
     8    8   22 1   
     9    8   19 1   
    10   10   14 ar  
    11   10   24 1   
    12   11    9 ar  
    13   11    4 1   
    14   12   10 ar  
    15   13   11 ar  
    16   15   16 ar  
    17   15   13 ar  
    18   16    7 ar  
    19   17    2 1   
    20   18    8 1   
    21   18   17 1   
    22   19   20 1   
    23   20   21 1   
    24   22    6 2   
    25   23   22 1   
    26   23   28 ar  
    27   24   23 ar  
    28   25   24 ar  
    29   25   26 ar  
    30   26   27 ar  
    31   27   28 ar  
    32   27   31 1   
    33   29   12 ar  
    34   29   30 ar  
    35   30   14 ar  
    36   32   19 1   
    37    9   33 1   
    38   13   34 1   
    39   15   35 1   
    40   17   36 1   
    41   17   37 1   
    42   18   38 1   
    43   18   39 1   
    44   19   40 1   
    45   20   41 1   
    46   20   42 1   
    47   21   43 1   
    48   21   44 1   
    49   25   45 1   
    50   26   46 1   
    51   28   47 1   
    52   29   48 1   
    53   30   49 1   
    54   31   50 1   
    55   31   51 1   
    56   31   52 1   
    57   32   53 1   
    58   32   54 1   
    59   32   55 1   
@<TRIPOS>SUBSTRUCTURE
     1 LIG         1 TEMP              0 ****  ****    0 ROOT
