@<TRIPOS>MOLECULE
3VY
   24    25     1     0     0
SMALL
bcc


@<TRIPOS>ATOM
      1 C           0.0850    1.7250    0.3870 C.c       1 LIG     -0.090100
      2 C1         -2.8000   -0.3440   -0.3240 C.a       1 LIG     -0.156000
      3 C2         -1.6070    0.3030   -0.0190 C.a       1 LIG     -0.055200
      4 C3         -1.7490   -2.4680    0.0760 C.a       1 LIG     -0.179000
      5 C4          0.5950    0.5010    0.5960 C.d       1 LIG     -0.089400
      6 C5         -2.1060    2.7610   -0.2840 C.3       1 LIG      0.041600
      7 C6          2.0050    0.1770    1.0160 C.3       1 LIG     -0.140200
      8 C7          2.8360   -0.1240   -0.2050 C.        1 LIG      0.916600
      9 C8         -2.8620   -1.7200   -0.2800 C.a       1 LIG     -0.138000
     10 O           4.1330   -0.4410   -0.0730 O.3       1 LIG     -0.850300
     11 O1          2.3330   -0.0800   -1.3030 O.3       1 LIG     -0.850300
     12 C9         -0.4810   -0.4600    0.3410 C.a       1 LIG     -0.082800
     13 C10        -0.5690   -1.8520    0.3850 C.a       1 LIG     -0.085000
     14 N          -1.2310    1.6270    0.0240 N.a       1 LIG     -0.096400
     15 H           0.6080    2.6090    0.4850 H         1 LIG      0.221000
     16 H1         -3.6350    0.2040   -0.5820 H         1 LIG      0.114000
     17 H2         -1.8130   -3.4980    0.1080 H         1 LIG      0.110000
     18 H3         -1.5600    3.6740   -0.1720 H         1 LIG      0.033700
     19 H4         -2.9400    2.7600    0.3860 H         1 LIG      0.033700
     20 H5         -2.4570    2.6770   -1.2910 H         1 LIG      0.033700
     21 H6          1.9980   -0.6760    1.6620 H         1 LIG      0.036200
     22 H7          2.4240    1.0140    1.5350 H         1 LIG      0.036200
     23 H8         -3.7450   -2.1990   -0.5140 H         1 LIG      0.107000
     24 H9          0.2550   -2.4140    0.6500 H         1 LIG      0.132000
@<TRIPOS>BOND
     1    1    5 2   
     2    2    9 ar  
     3    3    2 ar  
     4    3   12 ar  
     5    5   12 1   
     6    5    7 1   
     7    6   14 1   
     8    7    8 1   
     9    8   10 1   
    10    9    4 ar  
    11   11    8 1   
    12   12   13 ar  
    13   13    4 ar  
    14   14    1 1   
    15   14    3 1   
    16    1   15 1   
    17    2   16 1   
    18    4   17 1   
    19    6   18 1   
    20    6   19 1   
    21    6   20 1   
    22    7   21 1   
    23    7   22 1   
    24    9   23 1   
    25   13   24 1   
@<TRIPOS>SUBSTRUCTURE
     1 LIG         1 TEMP              0 ****  ****    0 ROOT
