@<TRIPOS>MOLECULE
DQX
   66    71     1     0     0
SMALL
bcc


@<TRIPOS>ATOM
      1 F           2.4550   -0.7520    2.5650 F.        1 LIG     -0.131900
      2 C           2.7470    0.1100    1.5660 C.a       1 LIG      0.172400
      3 C1          3.8740   -0.0920    0.7860 C.a       1 LIG     -0.264300
      4 C2          4.1800    0.7880   -0.2390 C.a       1 LIG      0.172400
      5 C3          3.3610    1.8730   -0.4890 C.a       1 LIG     -0.151500
      6 C4          2.2250    2.0800    0.2930 C.p       1 LIG      0.081000
      7 C5          1.9180    1.1890    1.3200 C.a       1 LIG     -0.151500
      8 C6          1.3440    3.2420    0.0300 C.p       1 LIG     -0.126300
      9 C7         -0.0550    3.0620   -0.1020 C.a       1 LIG      0.319300
     10 N          -0.6050    1.8510    0.0080 N.b       1 LIG     -0.648000
     11 C8         -1.9140    1.7130   -0.1190 C.a       1 LIG      0.408500
     12 C9         -2.7280    2.8340   -0.3700 C.a       1 LIG      0.298900
     13 N1         -2.2010    4.0290   -0.4800 N.b       1 LIG     -0.593000
     14 C10        -0.8770    4.1890   -0.3540 C.a       1 LIG      0.281300
     15 C11        -0.2900    5.4600   -0.4680 C.a       1 LIG     -0.119300
     16 C12         1.0580    5.6060   -0.3370 C.a       1 LIG     -0.122000
     17 C13         1.8780    4.5130   -0.0840 C.a       1 LIG     -0.074000
     18 C14        -2.5280    0.3700    0.0020 C.c       1 LIG     -0.300800
     19 C15        -3.8440    0.0620   -0.1990 C.d       1 LIG     -0.114300
     20 N2         -3.9890   -1.2610    0.0100 N.a       1 LIG      0.064400
     21 N3         -2.7390   -1.7910    0.3500 N.d       1 LIG     -0.499800
     22 C16        -1.8600   -0.8250    0.3410 C.c       1 LIG      0.358200
     23 C17        -5.2400   -2.0140   -0.0980 C.3       1 LIG      0.071000
     24 C18        -6.0090   -1.9230    1.2230 C.3       1 LIG     -0.130900
     25 C19        -7.3430   -2.6600    1.0840 C.3       1 LIG      0.107800
     26 N4         -8.1260   -2.0580   -0.0020 N.4       1 LIG     -0.766000
     27 C20        -7.4290   -2.1760   -1.2890 C.3       1 LIG      0.107800
     28 C21        -6.0980   -1.4240   -1.2210 C.3       1 LIG     -0.130900
     29 F1          5.2800    0.5850   -0.9960 F.        1 LIG     -0.131900
     30 C22         4.7710   -1.2730    1.0540 C.3       1 LIG      0.183100
     31 N5          4.3160   -2.4240    0.2620 N.4       1 LIG     -0.685400
     32 C23         5.0120   -3.6530    0.6690 C.3       1 LIG      0.069800
     33 C24         4.4660   -4.8330   -0.1380 C.3       1 LIG      0.099400
     34 O           4.6200   -4.5620   -1.5330 O.2       1 LIG     -0.369600
     35 C25         3.9540   -3.3720   -1.9650 C.3       1 LIG      0.099400
     36 C26         4.4950   -2.1760   -1.1760 C.3       1 LIG      0.069800
     37 H           3.5900    2.5280   -1.2530 H         1 LIG      0.183500
     38 H1          1.0740    1.3340    1.8950 H         1 LIG      0.183500
     39 H2         -3.7480    2.7140   -0.4680 H         1 LIG      0.029100
     40 H3         -0.8820    6.2850   -0.6510 H         1 LIG      0.174000
     41 H4          1.4780    6.5450   -0.4270 H         1 LIG      0.165000
     42 H5          2.8960    4.6510    0.0200 H         1 LIG      0.151000
     43 H6         -4.5910    0.7230   -0.4630 H         1 LIG      0.179000
     44 H7         -0.8530   -0.9200    0.5460 H         1 LIG      0.063100
     45 H8         -5.0180   -3.0380   -0.3150 H         1 LIG      0.105700
     46 H9         -6.1910   -0.8960    1.4600 H         1 LIG      0.100200
     47 H10        -5.4320   -2.3710    2.0050 H         1 LIG      0.100200
     48 H11        -7.8890   -2.5850    2.0010 H         1 LIG      0.116200
     49 H12        -7.1590   -3.6900    0.8610 H         1 LIG      0.116200
     50 H13        -8.2770   -1.0710    0.2050 H         1 LIG      0.460300
     51 H14        -9.0160   -2.5520   -0.0700 H         1 LIG      0.460300
     52 H15        -8.0370   -1.7560   -2.0630 H         1 LIG      0.116200
     53 H16        -7.2440   -3.2080   -1.5000 H         1 LIG      0.116200
     54 H17        -5.5830   -1.5230   -2.1540 H         1 LIG      0.100200
     55 H18        -6.2810   -0.3880   -1.0260 H         1 LIG      0.100200
     56 H19         4.7350   -1.5200    2.0950 H         1 LIG      0.117700
     57 H20         5.7760   -1.0270    0.7800 H         1 LIG      0.117700
     58 H21         3.3200   -2.5520    0.4410 H         1 LIG      0.448800
     59 H22         4.8490   -3.8270    1.7120 H         1 LIG      0.114700
     60 H23         6.0610   -3.5480    0.4870 H         1 LIG      0.114700
     61 H24         3.4290   -4.9710    0.0870 H         1 LIG      0.095700
     62 H25         5.0050   -5.7220    0.1160 H         1 LIG      0.095700
     63 H26         2.9020   -3.4680   -1.7930 H         1 LIG      0.095700
     64 H27         4.1290   -3.2220   -3.0100 H         1 LIG      0.095700
     65 H28         5.5350   -2.0470   -1.3900 H         1 LIG      0.114700
     66 H29         3.9640   -1.2900   -1.4570 H         1 LIG      0.114700
@<TRIPOS>BOND
     1    1    2 1   
     2    2    3 ar  
     3    2    7 ar  
     4    3    4 ar  
     5    3   30 1   
     6    4    5 ar  
     7    4   29 1   
     8    5    6 ar  
     9    6    7 ar  
    10    6    8 1   
    11    8    9 ar  
    12    8   17 ar  
    13    9   10 ar  
    14    9   14 ar  
    15   10   11 ar  
    16   11   12 ar  
    17   11   18 1   
    18   12   13 ar  
    19   13   14 ar  
    20   14   15 ar  
    21   15   16 ar  
    22   16   17 ar  
    23   18   19 ar  
    24   18   22 ar  
    25   19   20 ar  
    26   20   21 ar  
    27   20   23 1   
    28   21   22 ar  
    29   23   24 1   
    30   23   28 1   
    31   24   25 1   
    32   25   26 1   
    33   26   27 1   
    34   27   28 1   
    35   30   31 1   
    36   31   32 1   
    37   31   36 1   
    38   32   33 1   
    39   33   34 1   
    40   34   35 1   
    41   35   36 1   
    42    5   37 1   
    43    7   38 1   
    44   12   39 1   
    45   15   40 1   
    46   16   41 1   
    47   17   42 1   
    48   19   43 1   
    49   22   44 1   
    50   23   45 1   
    51   24   46 1   
    52   24   47 1   
    53   25   48 1   
    54   25   49 1   
    55   26   50 1   
    56   26   51 1   
    57   27   52 1   
    58   27   53 1   
    59   28   54 1   
    60   28   55 1   
    61   30   56 1   
    62   30   57 1   
    63   31   58 1   
    64   32   59 1   
    65   32   60 1   
    66   33   61 1   
    67   33   62 1   
    68   35   63 1   
    69   35   64 1   
    70   36   65 1   
    71   36   66 1   
@<TRIPOS>SUBSTRUCTURE
     1 LIG         1 TEMP              0 ****  ****    0 ROOT
