@<TRIPOS>MOLECULE
JG3
   43    44     1     0     0
SMALL
bcc


@<TRIPOS>ATOM
      1 C          -0.2300   -0.7730   -0.7060 C.3       1 LIG      0.119100
      2 N           1.1020   -0.1640    1.2570 N.4       1 LIG     -0.857600
      3 O          -0.3470   -2.1140   -0.2250 O.h       1 LIG     -0.561800
      4 C1         -3.2840    1.6950    0.1550 C.        1 LIG      0.933600
      5 N1         -2.6650   -0.5210   -0.6590 N.4       1 LIG     -0.662400
      6 O1         -2.6540    1.6200    1.1830 O.3       1 LIG     -0.778300
      7 C2         -3.0040   -1.7440    0.1010 C.3       1 LIG      0.101800
      8 C3         -1.4020    0.0600   -0.1850 C.3       1 LIG      0.034800
      9 C4          5.9370    0.8820    0.3500 C.a       1 LIG     -0.096000
     10 C5          4.1660   -0.6510    0.8490 C.a       1 LIG     -0.133500
     11 C6          4.1360    0.5870   -1.2000 C.a       1 LIG     -0.133500
     12 C7          1.0860   -0.1670   -0.2120 C.3       1 LIG      0.085500
     13 C8         -3.7750    0.4400   -0.5200 C.3       1 LIG     -0.021500
     14 C9          2.2580   -1.0010   -0.7330 C.3       1 LIG     -0.049100
     15 C10        -4.8580   -0.2340    0.3470 C.3       1 LIG     -0.093400
     16 C11         5.3560   -0.0410    1.2000 C.a       1 LIG     -0.110500
     17 C12         5.3260    1.1960   -0.8500 C.a       1 LIG     -0.110500
     18 C13         3.5560   -0.3360   -0.3510 C.a       1 LIG     -0.160300
     19 C14        -4.5510   -1.7460    0.1780 C.3       1 LIG     -0.098400
     20 O2         -3.5480    2.8950   -0.3850 O.3       1 LIG     -0.778300
     21 H          -0.2420   -0.7760   -1.7760 H         1 LIG      0.127700
     22 H1          0.3210    0.3920    1.6040 H         1 LIG      0.477133
     23 H2          1.9790    0.2390    1.5870 H         1 LIG      0.477133
     24 H3          1.0170   -1.1210    1.6000 H         1 LIG      0.477133
     25 H4         -0.3360   -2.1120    0.7450 H         1 LIG      0.412000
     26 H5         -2.5360   -0.7540   -1.6440 H         1 LIG      0.437800
     27 H6         -2.5780   -1.7080    1.0820 H         1 LIG      0.097700
     28 H7         -2.6220   -2.6280   -0.3650 H         1 LIG      0.097700
     29 H8         -1.3140    1.0640   -0.5450 H         1 LIG      0.126200
     30 H9         -1.3900    0.0620    0.8850 H         1 LIG      0.126200
     31 H10         6.8260    1.3360    0.6110 H         1 LIG      0.160000
     32 H11         3.7330   -1.3410    1.4820 H         1 LIG      0.133000
     33 H12         3.6800    0.8220   -2.0960 H         1 LIG      0.133000
     34 H13         1.1750    0.8370   -0.5720 H         1 LIG      0.117700
     35 H14        -4.1690    0.7080   -1.4780 H         1 LIG      0.109700
     36 H15         2.1960   -1.0770   -1.7980 H         1 LIG      0.093700
     37 H16         2.2180   -1.9800   -0.3030 H         1 LIG      0.093700
     38 H17        -5.8380    0.0020   -0.0110 H         1 LIG      0.095700
     39 H18        -4.8410    0.0880    1.3670 H         1 LIG      0.095700
     40 H19         5.8110   -0.2750    2.0960 H         1 LIG      0.157000
     41 H20         5.7590    1.8850   -1.4840 H         1 LIG      0.157000
     42 H21        -4.8990   -2.3110    1.0170 H         1 LIG      0.081700
     43 H22        -5.0280   -2.1950   -0.6680 H         1 LIG      0.081700
@<TRIPOS>BOND
     1    1    3 1   
     2    2   12 1   
     3    4   13 1   
     4    4   20 1   
     5    5   13 1   
     6    6    4 1   
     7    7    5 1   
     8    7   19 1   
     9    8    1 1   
    10    8    5 1   
    11    9   16 ar  
    12    9   17 ar  
    13   10   18 ar  
    14   11   18 ar  
    15   12    1 1   
    16   12   14 1   
    17   13   15 1   
    18   16   10 ar  
    19   17   11 ar  
    20   18   14 1   
    21   19   15 1   
    22    1   21 1   
    23    2   22 1   
    24    2   23 1   
    25    2   24 1   
    26    3   25 1   
    27    5   26 1   
    28    7   27 1   
    29    7   28 1   
    30    8   29 1   
    31    8   30 1   
    32    9   31 1   
    33   10   32 1   
    34   11   33 1   
    35   12   34 1   
    36   13   35 1   
    37   14   36 1   
    38   14   37 1   
    39   15   38 1   
    40   15   39 1   
    41   16   40 1   
    42   17   41 1   
    43   19   42 1   
    44   19   43 1   
@<TRIPOS>SUBSTRUCTURE
     1 LIG         1 TEMP              0 ****  ****    0 ROOT
