@<TRIPOS>MOLECULE
DPM
   50    51     1     0     0
SMALL
bcc


@<TRIPOS>ATOM
      1 C           2.5590    2.5850    0.1850 cc        1 LIG     -0.142600
      2 C1          3.2850    1.4690   -0.0300 cd        1 LIG     -0.083300
      3 C2          2.5200    0.6200   -0.8540 cd        1 LIG     -0.153300
      4 C3          1.3550    1.2490   -1.1110 cc        1 LIG     -0.119600
      5 C4          4.6620    1.1830    0.5120 c3        1 LIG     -0.113100
      6 C5          4.5440    0.4890    1.8440 c         1 LIG      0.907600
      7 C6          2.9280   -0.7420   -1.3550 c3        1 LIG      0.009900
      8 C7          2.4800   -1.8090   -0.3550 c3        1 LIG     -0.172400
      9 C8          2.8880   -3.1700   -0.8570 c         1 LIG      0.903600
     10 C9          2.9850    3.7700    1.0120 c3        1 LIG     -0.031800
     11 N           1.3760    2.4580   -0.4810 na        1 LIG     -0.187100
     12 O           3.4530    0.2520    2.3070 o         1 LIG     -0.881800
     13 O1          5.6500    0.1360    2.5170 o         1 LIG     -0.881800
     14 O2          3.4770   -3.2760   -1.9060 o         1 LIG     -0.883300
     15 O3          2.5970   -4.2660   -0.1370 o         1 LIG     -0.883300
     16 C10        -0.6580   -0.1660   -1.1090 cc        1 LIG     -0.113600
     17 C11        -1.6740    0.2540   -0.3300 cd        1 LIG     -0.104300
     18 C12        -2.2350   -0.8840    0.2830 cd        1 LIG     -0.137300
     19 C13        -1.5390   -1.9570   -0.1460 cc        1 LIG     -0.208300
     20 C14        -2.1280    1.6800   -0.1460 c3        1 LIG     -0.118100
     21 C15        -3.1760    2.0100   -1.1770 c         1 LIG      0.912600
     22 C16        -3.3980   -0.9000    1.2410 c3        1 LIG      0.007900
     23 C17        -4.7080   -0.9280    0.4520 c3        1 LIG     -0.174400
     24 C18        -5.8710   -0.9430    1.4110 c         1 LIG      0.903600
     25 C19         0.2290    0.7120   -1.9550 c3        1 LIG      0.031200
     26 N1         -0.5660   -1.5220   -0.9960 na        1 LIG     -0.187100
     27 O4         -3.5200    1.1730   -1.9790 o         1 LIG     -0.867800
     28 O5         -3.7280    3.2330   -1.2050 o         1 LIG     -0.867800
     29 O6         -5.6720   -0.9340    2.6030 o         1 LIG     -0.881300
     30 O7         -7.1280   -0.9680    0.9410 o         1 LIG     -0.881300
     31 H           5.1950    2.1030    0.6350 hc        1 LIG      0.037700
     32 H1          5.1910    0.5530   -0.1720 hc        1 LIG      0.037700
     33 H2          3.9920   -0.7780   -1.4620 hc        1 LIG      0.041700
     34 H3          2.4670   -0.9260   -2.3030 hc        1 LIG      0.041700
     35 H4          1.4160   -1.7730   -0.2470 hc        1 LIG      0.025200
     36 H5          2.9410   -1.6250    0.5930 hc        1 LIG      0.025200
     37 H6          3.9600    3.5920    1.4150 hc        1 LIG      0.037700
     38 H7          2.2890    3.9150    1.8120 hc        1 LIG      0.037700
     39 H8          3.0080    4.6450    0.3960 hc        1 LIG      0.037700
     40 H9          0.6560    3.1290   -0.5030 hn        1 LIG      0.281700
     41 H10        -1.7130   -2.9380    0.1230 h4        1 LIG      0.139000
     42 H11        -1.2930    2.3380   -0.2630 hc        1 LIG      0.025700
     43 H12        -2.5410    1.7990    0.8340 hc        1 LIG      0.025700
     44 H13        -3.3690   -0.0220    1.8520 hc        1 LIG      0.047700
     45 H14        -3.3370   -1.7690    1.8620 hc        1 LIG      0.047700
     46 H15        -4.7380   -1.8060   -0.1590 hc        1 LIG      0.016700
     47 H16        -4.7690   -0.0590   -0.1700 hc        1 LIG      0.016700
     48 H17         0.6310    0.1390   -2.7640 hc        1 LIG      0.093700
     49 H18        -0.3440    1.5270   -2.3460 hc        1 LIG      0.093700
     50 H19         0.0940   -2.0920   -1.4530 hn        1 LIG      0.286700
@<TRIPOS>BOND
     1    1    2 ar  
     2    1   10 1   
     3    1   11 ar  
     4    2    3 ar  
     5    2    5 1   
     6    3    4 ar  
     7    3    7 1   
     8    4   11 ar  
     9    4   25 1   
    10    5    6 1   
    11    6   12 1   
    12    6   13 1   
    13    7    8 1   
    14    8    9 1   
    15    9   14 1   
    16    9   15 1   
    17   16   17 ar  
    18   16   25 1   
    19   16   26 ar  
    20   17   18 ar  
    21   17   20 1   
    22   18   19 ar  
    23   18   22 1   
    24   19   26 ar  
    25   20   21 1   
    26   21   27 1   
    27   21   28 1   
    28   22   23 1   
    29   23   24 1   
    30   24   29 1   
    31   24   30 1   
    32    5   31 1   
    33    5   32 1   
    34    7   33 1   
    35    7   34 1   
    36    8   35 1   
    37    8   36 1   
    38   10   37 1   
    39   10   38 1   
    40   10   39 1   
    41   11   40 1   
    42   19   41 1   
    43   20   42 1   
    44   20   43 1   
    45   22   44 1   
    46   22   45 1   
    47   23   46 1   
    48   23   47 1   
    49   25   48 1   
    50   25   49 1   
    51   26   50 1   
@<TRIPOS>SUBSTRUCTURE
     1 LIG         1 TEMP              0 ****  ****    0 ROOT
