@<TRIPOS>MOLECULE
STP
   43    45     1     0     0
SMALL
bcc


@<TRIPOS>ATOM
      1 P           2.1070    6.1100   -2.4380 P.5       1 LIG      1.516900
      2 O           0.7150    5.8860   -1.9250 O.3       1 LIG     -0.760833
      3 O1          3.2520    6.1910   -1.3010 O.3       1 LIG     -0.760833
      4 O2          2.3140    7.4700   -3.2860 O.3       1 LIG     -0.760833
      5 P1          2.0920    4.4190   -4.8580 P.5       1 LIG      1.696800
      6 O3          0.6990    3.8630   -4.8380 O.3       1 LIG     -0.860000
      7 O4          2.3060    5.6830   -5.8430 O.3       1 LIG     -0.860000
      8 O5          2.6400    4.9570   -3.4370 O.2       1 LIG     -0.830800
      9 P2          3.7690    1.9900   -4.6490 P.5       1 LIG      1.555200
     10 S           5.1350    1.0350   -5.6460 S.        1 LIG     -0.801000
     11 O6          4.2130    2.4440   -3.1550 O.h       1 LIG     -0.834400
     12 O7          3.2610    3.3910   -5.2840 O.2       1 LIG     -0.775800
     13 O8          2.3930    1.1880   -4.3390 O.2       1 LIG     -0.574200
     14 C           2.4200    0.0510   -3.4930 C.3       1 LIG      0.171400
     15 C1          1.5190    0.3030   -2.2980 C.3       1 LIG      0.091100
     16 O9          2.0170    1.4230   -1.5470 O.2       1 LIG     -0.440600
     17 C2          1.4650   -0.8650   -1.3250 C.3       1 LIG      0.122100
     18 O10         0.5010   -1.8290   -1.6940 O.h       1 LIG     -0.624800
     19 C3          1.0830   -0.1700   -0.0380 C.3       1 LIG     -0.138400
     20 C4          1.8730    1.1250   -0.1440 C.3       1 LIG      0.262800
     21 N           1.2570    2.2590    0.5340 N.a       1 LIG     -0.303000
     22 C5          0.3180    3.1080    0.0040 C.c       1 LIG      0.302700
     23 N1         -0.0510    4.0400    0.8580 N.d       1 LIG     -0.742100
     24 C6          0.6800    3.7880    1.9920 C.a       1 LIG     -0.122200
     25 C7          0.7360    4.4180    3.2310 C.a       1 LIG      0.568200
     26 N2         -0.0610    5.5440    3.5000 N.h       1 LIG     -0.897500
     27 N3          1.5720    3.9320    4.1800 N.b       1 LIG     -0.782000
     28 C8          2.3150    2.8440    3.8620 C.a       1 LIG      0.574900
     29 N4          2.3480    2.1500    2.7030 N.b       1 LIG     -0.722000
     30 C9          1.4990    2.6850    1.8120 C.a       1 LIG      0.383800
     31 H           5.0430    2.9450   -3.2020 H         1 LIG      0.553000
     32 H1          3.4210   -0.1230   -3.1570 H         1 LIG      0.048700
     33 H2          2.0760   -0.8080   -4.0300 H         1 LIG      0.048700
     34 H3          0.5430    0.4700   -2.7020 H         1 LIG      0.086700
     35 H4          2.3790   -1.4190   -1.2750 H         1 LIG      0.131700
     36 H5         -0.3690   -1.4060   -1.7630 H         1 LIG      0.446000
     37 H6          1.3810   -0.7400    0.8170 H         1 LIG      0.063200
     38 H7          0.0290   -0.0290    0.0840 H         1 LIG      0.063200
     39 H8          2.8130    0.9770    0.3450 H         1 LIG      0.066700
     40 H9         -0.0560    3.0260   -0.9540 H         1 LIG      0.100800
     41 H10        -0.6670    5.8940    2.8080 H         1 LIG      0.364300
     42 H11        -0.0130    5.9820    4.3800 H         1 LIG      0.364300
     43 H12         2.9410    2.4980    4.6060 H         1 LIG      0.005100
@<TRIPOS>BOND
     1    1    2 1   
     2    1    3 1   
     3    1    4 1   
     4    1    8 1   
     5    5    6 1   
     6    5    7 1   
     7    5    8 1   
     8    5   12 1   
     9    9   10 2   
    10    9   11 1   
    11    9   12 1   
    12    9   13 1   
    13   13   14 1   
    14   14   15 1   
    15   15   16 1   
    16   15   17 1   
    17   16   20 1   
    18   17   18 1   
    19   17   19 1   
    20   19   20 1   
    21   20   21 1   
    22   21   22 1   
    23   21   30 1   
    24   22   23 2   
    25   23   24 1   
    26   24   25 ar  
    27   24   30 ar  
    28   25   26 1   
    29   25   27 ar  
    30   27   28 ar  
    31   28   29 ar  
    32   29   30 ar  
    33   11   31 1   
    34   14   32 1   
    35   14   33 1   
    36   15   34 1   
    37   17   35 1   
    38   18   36 1   
    39   19   37 1   
    40   19   38 1   
    41   20   39 1   
    42   22   40 1   
    43   26   41 1   
    44   26   42 1   
    45   28   43 1   
@<TRIPOS>SUBSTRUCTURE
     1 LIG         1 TEMP              0 ****  ****    0 ROOT
