@<TRIPOS>MOLECULE
RO7
   53    56     1     0     0
SMALL
bcc


@<TRIPOS>ATOM
      1 C           3.4840    1.0920   -3.1910 C.3       1 LIG     -0.134400
      2 C1          4.1540    0.7740   -1.8790 C.c       1 LIG      0.175700
      3 O           5.3120    0.1040   -1.7140 O.2       1 LIG     -0.382800
      4 C2          5.5590    0.0340   -0.3950 C.c       1 LIG      0.531900
      5 C3          6.7300   -0.6170    0.2300 C.a       1 LIG     -0.122500
      6 C4          7.6990   -1.2310   -0.5660 C.a       1 LIG     -0.094500
      7 C5          8.7890   -1.8360    0.0240 C.a       1 LIG     -0.140000
      8 C6          8.9230   -1.8360    1.4010 C.a       1 LIG     -0.119000
      9 C7          7.9660   -1.2300    2.1960 C.a       1 LIG     -0.140000
     10 C8          6.8740   -0.6150    1.6180 C.a       1 LIG     -0.094500
     11 N           4.5870    0.6410    0.2450 N.d       1 LIG     -0.654000
     12 C9          3.7100    1.1110   -0.6550 C.d       1 LIG      0.240300
     13 C10         2.4490    1.8780   -0.3470 C.3       1 LIG     -0.111700
     14 C11         1.2870    0.8980   -0.1690 C.3       1 LIG      0.129400
     15 O1          0.0920    1.6250    0.1220 O.2       1 LIG     -0.341900
     16 C12        -1.0410    0.8990    0.3100 C.a       1 LIG      0.124100
     17 C13        -1.0000   -0.4730    0.2160 C.a       1 LIG     -0.197000
     18 C14        -2.1510   -1.2240    0.4060 C.a       1 LIG     -0.084000
     19 C15        -2.2590    1.5570    0.6070 C.a       1 LIG     -0.113800
     20 C16        -2.5250    2.9790    0.7570 C.c       1 LIG     -0.110200
     21 C17        -3.7770    3.2830    1.0380 C.d       1 LIG     -0.184400
     22 C18        -3.4100    0.7900    0.7960 C.a       1 LIG     -0.043100
     23 S          -4.7730    1.8450    1.1500 S.3       1 LIG      0.003500
     24 C19        -3.3440   -0.6040    0.6900 C.a       1 LIG     -0.041300
     25 C20        -4.5880   -1.4300    0.8940 C.3       1 LIG     -0.036100
     26 C21        -5.3640   -1.5170   -0.4210 C.3       1 LIG      0.027100
     27 O2         -5.8300   -0.2160   -0.7860 O.2       1 LIG     -0.438600
     28 C22        -5.9450   -0.0150   -2.1960 C.3       1 LIG      0.116700
     29 C23        -6.5410   -2.4420   -0.2500 C.        1 LIG      0.898600
     30 O3         -6.3390   -3.7460   -0.0040 O.3       1 LIG     -0.837300
     31 O4         -7.6660   -2.0100   -0.3340 O.3       1 LIG     -0.837300
     32 H           4.0690    0.6970   -3.9950 H         1 LIG      0.067700
     33 H1          3.3990    2.1530   -3.3000 H         1 LIG      0.067700
     34 H2          2.5090    0.6520   -3.2090 H         1 LIG      0.067700
     35 H3          7.6000   -1.2320   -1.5930 H         1 LIG      0.153000
     36 H4          9.5060   -2.2900   -0.5630 H         1 LIG      0.133000
     37 H5          9.7410   -2.2900    1.8370 H         1 LIG      0.129000
     38 H6          8.0690   -1.2380    3.2230 H         1 LIG      0.133000
     39 H7          6.1660   -0.1550    2.2110 H         1 LIG      0.153000
     40 H8          2.2320    2.5460   -1.1540 H         1 LIG      0.071200
     41 H9          2.5840    2.4390    0.5540 H         1 LIG      0.071200
     42 H10         1.5040    0.2300    0.6380 H         1 LIG      0.046200
     43 H11         1.1530    0.3360   -1.0700 H         1 LIG      0.046200
     44 H12        -0.1080   -0.9460    0.0030 H         1 LIG      0.130000
     45 H13        -2.1110   -2.2530    0.3340 H         1 LIG      0.206000
     46 H14        -1.7900    3.6960    0.6510 H         1 LIG      0.149000
     47 H15        -4.1260    4.2450    1.1750 H         1 LIG      0.154000
     48 H16        -5.2020   -0.9720    1.6410 H         1 LIG      0.063700
     49 H17        -4.3140   -2.4140    1.2120 H         1 LIG      0.063700
     50 H18        -4.7220   -1.8950   -1.1890 H         1 LIG      0.023700
     51 H19        -6.2980    0.9770   -2.3870 H         1 LIG      0.027700
     52 H20        -6.6360   -0.7240   -2.6020 H         1 LIG      0.027700
     53 H21        -4.9870   -0.1480   -2.6550 H         1 LIG      0.027700
@<TRIPOS>BOND
     1    1    2 1   
     2    2    3 ar  
     3    2   12 ar  
     4    3    4 ar  
     5    4    5 1   
     6    4   11 ar  
     7    5    6 ar  
     8    5   10 ar  
     9    6    7 ar  
    10    7    8 ar  
    11    8    9 ar  
    12    9   10 ar  
    13   11   12 ar  
    14   12   13 1   
    15   13   14 1   
    16   14   15 1   
    17   15   16 1   
    18   16   17 ar  
    19   16   19 ar  
    20   17   18 ar  
    21   18   24 ar  
    22   19   20 1   
    23   19   22 ar  
    24   20   21 2   
    25   21   23 1   
    26   22   23 1   
    27   22   24 ar  
    28   24   25 1   
    29   25   26 1   
    30   26   27 1   
    31   26   29 1   
    32   27   28 1   
    33   29   30 1   
    34   29   31 1   
    35    1   32 1   
    36    1   33 1   
    37    1   34 1   
    38    6   35 1   
    39    7   36 1   
    40    8   37 1   
    41    9   38 1   
    42   10   39 1   
    43   13   40 1   
    44   13   41 1   
    45   14   42 1   
    46   14   43 1   
    47   17   44 1   
    48   18   45 1   
    49   20   46 1   
    50   21   47 1   
    51   25   48 1   
    52   25   49 1   
    53   26   50 1   
    54   28   51 1   
    55   28   52 1   
    56   28   53 1   
@<TRIPOS>SUBSTRUCTURE
     1 LIG         1 TEMP              0 ****  ****    0 ROOT
