@<TRIPOS>MOLECULE
DR0
   33    32     1     0     0
SMALL
bcc


@<TRIPOS>ATOM
      1 C           5.4720   -0.4100    0.0000 c3        1 LIG     -0.096100
      2 C1          4.2620    0.5270    0.0000 c3        1 LIG     -0.079400
      3 C2          2.9760   -0.3020    0.0000 c3        1 LIG     -0.080400
      4 C3          1.7660    0.6340    0.0000 c3        1 LIG     -0.080400
      5 C4          0.4800   -0.1950    0.0000 c3        1 LIG     -0.101400
      6 C5         -0.7310    0.7420    0.0000 c3        1 LIG      0.114800
      7 N          -1.9650   -0.0540    0.0000 n4        1 LIG     -0.651800
      8 C6         -2.0020   -0.9010   -1.1990 c3        1 LIG      0.084600
      9 C7         -2.0020   -0.9010    1.1990 c3        1 LIG      0.084600
     10 C8         -3.1270    0.8450    0.0000 c3        1 LIG      0.333600
     11 O          -4.3280    0.0710    0.0000 oh        1 LIG     -0.548800
     12 H           6.3720    0.1690    0.0000 hc        1 LIG      0.042367
     13 H1          5.4450   -1.0270   -0.8740 hc        1 LIG      0.042367
     14 H2          5.4450   -1.0270    0.8740 hc        1 LIG      0.042367
     15 H3          4.2890    1.1440   -0.8740 hc        1 LIG      0.044700
     16 H4          4.2890    1.1450    0.8730 hc        1 LIG      0.044700
     17 H5          2.9500   -0.9190    0.8740 hc        1 LIG      0.048200
     18 H6          2.9500   -0.9190   -0.8740 hc        1 LIG      0.048200
     19 H7          1.7920    1.2510   -0.8740 hc        1 LIG      0.054200
     20 H8          1.7920    1.2510    0.8740 hc        1 LIG      0.054200
     21 H9          0.4540   -0.8120    0.8740 hc        1 LIG      0.065200
     22 H10         0.4540   -0.8120   -0.8740 hc        1 LIG      0.065200
     23 H11        -0.7050    1.3590   -0.8740 hx        1 LIG      0.095700
     24 H12        -0.7050    1.3590    0.8740 hx        1 LIG      0.095700
     25 H13        -1.1560   -1.5560   -1.1990 hx        1 LIG      0.102367
     26 H14        -1.9760   -0.2840   -2.0730 hx        1 LIG      0.102367
     27 H15        -2.9010   -1.4800   -1.1990 hx        1 LIG      0.102367
     28 H16        -1.1560   -1.5560    1.1990 hx        1 LIG      0.102367
     29 H17        -2.9010   -1.4800    1.1990 hx        1 LIG      0.102367
     30 H18        -1.9760   -0.2840    2.0730 hx        1 LIG      0.102367
     31 H19        -3.1000    1.4620   -0.8740 hx        1 LIG      0.112700
     32 H20        -3.1000    1.4620    0.8740 hx        1 LIG      0.112700
     33 H21        -4.3520   -0.4880   -0.7920 ho        1 LIG      0.441000
@<TRIPOS>BOND
     1    1    2 1   
     2    2    3 1   
     3    3    4 1   
     4    4    5 1   
     5    5    6 1   
     6    6    7 1   
     7    7    8 1   
     8    7    9 1   
     9    7   10 1   
    10   10   11 1   
    11    1   12 1   
    12    1   13 1   
    13    1   14 1   
    14    2   15 1   
    15    2   16 1   
    16    3   17 1   
    17    3   18 1   
    18    4   19 1   
    19    4   20 1   
    20    5   21 1   
    21    5   22 1   
    22    6   23 1   
    23    6   24 1   
    24    8   25 1   
    25    8   26 1   
    26    8   27 1   
    27    9   28 1   
    28    9   29 1   
    29    9   30 1   
    30   10   31 1   
    31   10   32 1   
    32   11   33 1   
@<TRIPOS>SUBSTRUCTURE
     1 LIG         1 TEMP              0 ****  ****    0 ROOT
