@<TRIPOS>MOLECULE
9PY
   25    25     1     0     0
SMALL
bcc


@<TRIPOS>ATOM
      1 O           2.7600    0.1370    1.2630 O.3       1 LIG     -0.818800
      2 C           2.3520   -0.3570    0.2380 C.        1 LIG      0.904600
      3 O1          3.1810   -1.0670   -0.5420 O.3       1 LIG     -0.818800
      4 C1          0.9090   -0.1800   -0.1600 C.3       1 LIG      0.028800
      5 O2          0.8160   -0.0750   -1.5820 O.h       1 LIG     -0.634800
      6 C2          0.0970   -1.3850    0.3160 C.3       1 LIG     -0.104400
      7 C3         -1.3510   -1.2570   -0.1610 C.3       1 LIG      0.120100
      8 O3         -2.0820   -2.4250    0.2160 O.h       1 LIG     -0.596800
      9 C4         -1.9910   -0.0230    0.4830 C.3       1 LIG      0.002100
     10 O4         -3.2980    0.1780   -0.0590 O.h       1 LIG     -0.592800
     11 C5         -1.1260    1.1810    0.1810 C.        1 LIG      0.562100
     12 O5         -1.6050    2.1850   -0.2890 O.3       1 LIG     -0.564100
     13 C6          0.3530    1.0950    0.4840 C.3       1 LIG     -0.159700
     14 C7          1.0690    2.3170   -0.0960 C.3       1 LIG     -0.079100
     15 H           1.1680   -0.8820   -1.9900 H         1 LIG      0.433000
     16 H1          0.1160   -1.4260    1.3850 H         1 LIG      0.064700
     17 H2          0.5240   -2.2800   -0.0880 H         1 LIG      0.064700
     18 H3         -1.3690   -1.1550   -1.2260 H         1 LIG      0.087700
     19 H4         -2.0660   -2.5190    1.1810 H         1 LIG      0.391000
     20 H5         -2.0700   -0.1620    1.5410 H         1 LIG      0.084700
     21 H6         -3.2340    0.3050   -1.0190 H         1 LIG      0.409000
     22 H7          0.5090    1.0700    1.5420 H         1 LIG      0.092700
     23 H8          0.9180    2.3500   -1.1550 H         1 LIG      0.041033
     24 H9          2.1160    2.2490    0.1130 H         1 LIG      0.041033
     25 H10         0.6730    3.2060    0.3480 H         1 LIG      0.041033
@<TRIPOS>BOND
     1    1    2 1   
     2    2    3 1   
     3    2    4 1   
     4    4    5 1   
     5    4    6 1   
     6    4   13 1   
     7    6    7 1   
     8    7    8 1   
     9    7    9 1   
    10    9   10 1   
    11    9   11 1   
    12   11   12 2   
    13   11   13 1   
    14   13   14 1   
    15    5   15 1   
    16    6   16 1   
    17    6   17 1   
    18    7   18 1   
    19    8   19 1   
    20    9   20 1   
    21   10   21 1   
    22   13   22 1   
    23   14   23 1   
    24   14   24 1   
    25   14   25 1   
@<TRIPOS>SUBSTRUCTURE
     1 LIG         1 TEMP              0 ****  ****    0 ROOT
