@<TRIPOS>MOLECULE
OCZ
   30    32     1     0     0
SMALL
bcc


@<TRIPOS>ATOM
      1 N           4.9010   -0.8830   -0.2960 n         1 LIG     -0.663000
      2 O           2.9440   -1.8000   -0.7990 o         1 LIG     -0.640100
      3 C           3.5540   -0.9030   -0.2560 c         1 LIG      0.663100
      4 N1          0.6800   -1.2600    0.5200 na        1 LIG     -0.160400
      5 C1          0.7490    2.3510   -0.1320 c3        1 LIG     -0.006200
      6 C2         -1.7620   -1.9640    0.4140 ca        1 LIG     -0.133000
      7 C3         -3.0370   -1.4870    0.2050 ca        1 LIG     -0.109000
      8 C4         -0.6790   -1.0930    0.3590 ca        1 LIG     -0.041200
      9 Cl         -4.8700    0.4360   -0.3200 cl        1 LIG     -0.108400
     10 C5         -0.9020    0.2710    0.0880 ca        1 LIG     -0.082800
     11 C6         -2.2040    0.7330   -0.1200 ca        1 LIG     -0.077000
     12 C7          0.4140    0.9000    0.1000 cc        1 LIG     -0.131400
     13 C8          1.3180   -0.0630    0.3630 cd        1 LIG     -0.063300
     14 C9         -3.2530   -0.1410   -0.0610 ca        1 LIG     -0.010600
     15 C10         2.1710    2.6080    0.3750 c3        1 LIG     -0.076400
     16 C11         2.8050    0.1890    0.4640 c3        1 LIG     -0.065500
     17 C12         3.1150    1.5420   -0.1880 c3        1 LIG     -0.075400
     18 H           5.3900   -1.5960   -0.7660 hn        1 LIG      0.316000
     19 H1          5.3960   -0.1550    0.1450 hn        1 LIG      0.316000
     20 H2          1.1250   -2.1160    0.7190 hn        1 LIG      0.327700
     21 H3          0.0580    2.9710    0.4010 hc        1 LIG      0.051700
     22 H4          0.6840    2.5800   -1.1750 hc        1 LIG      0.051700
     23 H5         -1.6110   -2.9660    0.6110 ha        1 LIG      0.140000
     24 H6         -3.8390   -2.1350    0.2460 ha        1 LIG      0.145000
     25 H7         -2.3730    1.7320   -0.3180 ha        1 LIG      0.147000
     26 H8          2.1820    2.5650    1.4440 hc        1 LIG      0.047700
     27 H9          2.4940    3.5760    0.0530 hc        1 LIG      0.047700
     28 H10         3.1060    0.1990    1.4910 hc        1 LIG      0.094700
     29 H11         4.1280    1.8150    0.0220 hc        1 LIG      0.047700
     30 H12         2.9780    1.4680   -1.2470 hc        1 LIG      0.047700
@<TRIPOS>BOND
     1    3    2 2   
     2    3    1 1   
     3    4   13 1   
     4    5   12 1   
     5    6    8 ar  
     6    7    6 ar  
     7    8    4 1   
     8   10   11 ar  
     9   10    8 ar  
    10   11   14 ar  
    11   12   10 1   
    12   12   13 2   
    13   13   16 1   
    14   14    9 1   
    15   14    7 ar  
    16   15    5 1   
    17   16    3 1   
    18   17   15 1   
    19   17   16 1   
    20    1   18 1   
    21    1   19 1   
    22    4   20 1   
    23    5   21 1   
    24    5   22 1   
    25    6   23 1   
    26    7   24 1   
    27   11   25 1   
    28   15   26 1   
    29   15   27 1   
    30   16   28 1   
    31   17   29 1   
    32   17   30 1   
@<TRIPOS>SUBSTRUCTURE
     1 LIG         1 TEMP              0 ****  ****    0 ROOT
