@<TRIPOS>MOLECULE
C11
   51    50     1     0     0
SMALL
bcc


@<TRIPOS>ATOM
      1 C          -0.6360   -0.1260   -1.8860 c3        1 LIG      0.037400
      2 C1          0.2330    0.1490   -0.6580 c3        1 LIG     -0.067400
      3 C2         -0.5750   -0.1220    0.6110 c3        1 LIG     -0.076400
      4 C3          0.2950    0.1530    1.8390 c3        1 LIG     -0.079400
      5 C4         -0.5130   -0.1190    3.1090 c3        1 LIG     -0.079400
      6 C5          0.3570    0.1570    4.3360 c3        1 LIG     -0.079400
      7 C6         -0.4510   -0.1150    5.6060 c3        1 LIG     -0.079400
      8 C7          0.4180    0.1600    6.8340 c3        1 LIG     -0.079400
      9 C8         -0.3890   -0.1110    8.1040 c3        1 LIG     -0.079400
     10 C9          0.4800    0.1640    9.3320 c3        1 LIG     -0.080400
     11 C10        -0.3270   -0.1080   10.6020 c3        1 LIG     -0.092100
     12 P           0.3260    0.1980   -3.3990 p5        1 LIG     -0.488700
     13 O           1.5130   -0.6850   -3.4270 o         1 LIG     -0.239300
     14 O1         -0.5890   -0.0920   -4.6910 os        1 LIG     -0.312200
     15 C11         0.2170    0.1780   -5.8390 c3        1 LIG      0.138400
     16 C12        -0.5970   -0.0790   -7.1080 c3        1 LIG     -0.084400
     17 C13         0.2660    0.2110   -8.3370 c3        1 LIG     -0.079400
     18 C14        -0.5480   -0.0460   -9.6060 c3        1 LIG     -0.092100
     19 H          -1.4940    0.5130   -1.8660 hc        1 LIG      0.071700
     20 H1         -0.9510   -1.1490   -1.8770 hc        1 LIG      0.071700
     21 H2          0.5500    1.1710   -0.6670 hc        1 LIG      0.045200
     22 H3          1.0900   -0.4910   -0.6780 hc        1 LIG      0.045200
     23 H4         -0.8920   -1.1440    0.6200 hc        1 LIG      0.040700
     24 H5         -1.4320    0.5180    0.6310 hc        1 LIG      0.040700
     25 H6          0.6120    1.1750    1.8300 hc        1 LIG      0.040200
     26 H7          1.1530   -0.4870    1.8190 hc        1 LIG      0.040200
     27 H8         -0.8290   -1.1410    3.1190 hc        1 LIG      0.039700
     28 H9         -1.3710    0.5200    3.1290 hc        1 LIG      0.039700
     29 H10         0.6730    1.1790    4.3270 hc        1 LIG      0.039700
     30 H11         1.2150   -0.4820    4.3160 hc        1 LIG      0.039700
     31 H12        -0.7670   -1.1370    5.6150 hc        1 LIG      0.039700
     32 H13        -1.3080    0.5250    5.6260 hc        1 LIG      0.039700
     33 H14         0.7350    1.1820    6.8250 hc        1 LIG      0.039700
     34 H15         1.2750   -0.4800    6.8140 hc        1 LIG      0.039700
     35 H16        -0.7060   -1.1330    8.1130 hc        1 LIG      0.039700
     36 H17        -1.2460    0.5290    8.1240 hc        1 LIG      0.039700
     37 H18         0.7960    1.1860    9.3230 hc        1 LIG      0.038700
     38 H19         1.3370   -0.4760    9.3120 hc        1 LIG      0.038700
     39 H20        -1.1850    0.5310   10.6230 hc        1 LIG      0.032700
     40 H21         0.2830    0.0840   11.4600 hc        1 LIG      0.032700
     41 H22        -0.6440   -1.1300   10.6110 hc        1 LIG      0.032700
     42 H23         1.0890   -0.8140   -2.8530 hp        1 LIG      0.589600
     43 H24         1.0750   -0.4610   -5.8300 h1        1 LIG      0.033200
     44 H25         0.5330    1.2000   -5.8200 h1        1 LIG      0.033200
     45 H26        -1.4550    0.5600   -7.1160 hc        1 LIG      0.053200
     46 H27        -0.9120   -1.1010   -7.1280 hc        1 LIG      0.053200
     47 H28         1.1240   -0.4280   -8.3290 hc        1 LIG      0.040200
     48 H29         0.5810    1.2330   -8.3170 hc        1 LIG      0.040200
     49 H30        -0.8640   -1.0680   -9.6260 hc        1 LIG      0.034700
     50 H31         0.0570    0.1580  -10.4650 hc        1 LIG      0.034700
     51 H32        -1.4070    0.5930   -9.6140 hc        1 LIG      0.034700
@<TRIPOS>BOND
     1    1    2 1   
     2    1   12 1   
     3    2    3 1   
     4    3    4 1   
     5    4    5 1   
     6    5    6 1   
     7    6    7 1   
     8    7    8 1   
     9    8    9 1   
    10    9   10 1   
    11   10   11 1   
    12   12   13 2   
    13   12   14 1   
    14   14   15 1   
    15   15   16 1   
    16   16   17 1   
    17   17   18 1   
    18    1   19 1   
    19    1   20 1   
    20    2   21 1   
    21    2   22 1   
    22    3   23 1   
    23    3   24 1   
    24    4   25 1   
    25    4   26 1   
    26    5   27 1   
    27    5   28 1   
    28    6   29 1   
    29    6   30 1   
    30    7   31 1   
    31    7   32 1   
    32    8   33 1   
    33    8   34 1   
    34    9   35 1   
    35    9   36 1   
    36   10   37 1   
    37   10   38 1   
    38   11   39 1   
    39   11   40 1   
    40   11   41 1   
    41   12   42 1   
    42   15   43 1   
    43   15   44 1   
    44   16   45 1   
    45   16   46 1   
    46   17   47 1   
    47   17   48 1   
    48   18   49 1   
    49   18   50 1   
    50   18   51 1   
@<TRIPOS>SUBSTRUCTURE
     1 LIG         1 TEMP              0 ****  ****    0 ROOT
