@<TRIPOS>MOLECULE
MYI
   25    26     1     0     0
SMALL
bcc


@<TRIPOS>ATOM
      1 C           4.3350    1.6220   -0.1040 C.3       1 LIG      0.118700
      2 O          -2.5550    0.7540   -1.3010 O.3       1 LIG     -0.849300
      3 O1         -3.9240    1.9240   -0.0210 O.3       1 LIG     -0.849300
      4 C1          2.7500   -0.5590   -0.2980 C.a       1 LIG     -0.159000
      5 C2          1.9830   -1.6970   -0.4110 C.a       1 LIG     -0.126000
      6 C3         -1.5600   -2.0290    0.2600 C.c       1 LIG     -0.093100
      7 C4          0.8340    0.7070    0.4170 C.a       1 LIG     -0.155000
      8 C5         -2.4200    0.2510    0.9970 C.3       1 LIG     -0.141200
      9 N          -0.3780   -2.5980   -0.1290 N.a       1 LIG     -0.200400
     10 O2          2.9510    1.7580    0.2220 O.2       1 LIG     -0.346900
     11 C6         -2.9710    0.9940   -0.1930 C.        1 LIG      0.916600
     12 C7          2.1790    0.6430    0.1150 C.a       1 LIG      0.075100
     13 C8         -1.3720   -0.7280    0.5360 C.d       1 LIG     -0.095400
     14 C9          0.6250   -1.6530   -0.1130 C.a       1 LIG     -0.094200
     15 C10         0.0460   -0.4420    0.3050 C.a       1 LIG     -0.052800
     16 H           4.8250    2.5650    0.0210 H         1 LIG      0.035367
     17 H1          4.4320    1.3010   -1.1200 H         1 LIG      0.035367
     18 H2          4.7840    0.8980    0.5430 H         1 LIG      0.035367
     19 H3          3.7570   -0.5970   -0.5210 H         1 LIG      0.128000
     20 H4          2.4160   -2.5830   -0.7170 H         1 LIG      0.117000
     21 H5         -2.4620   -2.5260    0.3310 H         1 LIG      0.221000
     22 H6          0.4130    1.5980    0.7240 H         1 LIG      0.141000
     23 H7         -3.2120   -0.2780    1.4850 H         1 LIG      0.035200
     24 H8         -1.9820    0.9480    1.6810 H         1 LIG      0.035200
     25 H9         -0.2610   -3.5420   -0.3830 H         1 LIG      0.269700
@<TRIPOS>BOND
     1    1   10 1   
     2    2   11 1   
     3    3   11 1   
     4    4    5 ar  
     5    4   12 ar  
     6    5   14 ar  
     7    6    9 1   
     8    6   13 2   
     9    7   12 ar  
    10    7   15 ar  
    11    8   11 1   
    12    8   13 1   
    13    9   14 1   
    14   10   12 1   
    15   13   15 1   
    16   14   15 ar  
    17    1   16 1   
    18    1   17 1   
    19    1   18 1   
    20    4   19 1   
    21    5   20 1   
    22    6   21 1   
    23    7   22 1   
    24    8   23 1   
    25    8   24 1   
    26    9   25 1   
@<TRIPOS>SUBSTRUCTURE
     1 LIG         1 TEMP              0 ****  ****    0 ROOT
