@<TRIPOS>MOLECULE
AEE
   67    71     1     0     0
SMALL
bcc


@<TRIPOS>ATOM
      1 C          -7.1410   -0.2150   -0.5510 c3        1 LIG      0.075300
      2 C1         -7.7360    0.8790    0.3370 c3        1 LIG      0.079800
      3 N          -6.9600    2.1160    0.1830 n4        1 LIG     -0.697400
      4 C2         -7.5090    3.0810    1.1460 c3        1 LIG      0.120800
      5 C3         -6.5940    4.3050    1.2180 c3        1 LIG     -0.145100
      6 C4         -5.5910    1.8170    0.6190 c3        1 LIG      0.079800
      7 C5         -4.9960    0.7230   -0.2690 c3        1 LIG      0.075300
      8 N1         -5.7720   -0.5140   -0.1150 n4        1 LIG     -0.711400
      9 C6         -5.2230   -1.4780   -1.0780 c3        1 LIG      0.220100
     10 C7         -3.7450   -1.6440   -0.8360 ca        1 LIG     -0.282300
     11 C8         -3.2950   -2.6140    0.0410 ca        1 LIG     -0.068500
     12 C9         -1.9430   -2.7710    0.2670 ca        1 LIG     -0.155000
     13 C10        -2.8440   -0.8290   -1.4980 ca        1 LIG     -0.068500
     14 C11        -1.4890   -0.9720   -1.2780 ca        1 LIG     -0.155000
     15 C12        -1.0290   -1.9490   -0.3940 ca        1 LIG      0.109200
     16 C13         0.4220   -2.1110   -0.1570 cc        1 LIG     -0.135300
     17 N2          1.0760   -3.3170   -0.0210 na        1 LIG     -0.272100
     18 C14         1.3160   -1.0970   -0.0450 cd        1 LIG     -0.021200
     19 C15         2.6200   -1.7090    0.1850 ca        1 LIG     -0.422400
     20 C16         2.4110   -3.1020    0.1870 ca        1 LIG      0.532800
     21 N3          3.4600   -3.9020    0.3750 nb        1 LIG     -0.758000
     22 C17         4.6630   -3.4020    0.5550 ca        1 LIG      0.734900
     23 N4          4.9040   -2.1030    0.5600 nb        1 LIG     -0.790000
     24 C18         3.9230   -1.2230    0.3810 ca        1 LIG      0.778200
     25 N5          4.1800    0.1350    0.3870 nh        1 LIG     -0.838900
     26 C19         5.5460    0.6220    0.5920 c3        1 LIG      0.274800
     27 C20         5.8370    0.7090    2.0920 c3        1 LIG     -0.110100
     28 C21         5.6920    1.9870   -0.0280 ca        1 LIG     -0.121300
     29 C22         6.8500    2.3190   -0.7060 ca        1 LIG     -0.119000
     30 C23         6.9840    3.5710   -1.2750 ca        1 LIG     -0.125500
     31 C24         5.9590    4.4930   -1.1660 ca        1 LIG     -0.113000
     32 C25         4.8010    4.1610   -0.4890 ca        1 LIG     -0.125500
     33 C26         4.6650    2.9070    0.0770 ca        1 LIG     -0.119000
     34 H          -7.1260    0.1200   -1.5670 hx        1 LIG      0.140950
     35 H1         -7.7390   -1.0990   -0.4740 hx        1 LIG      0.140950
     36 H2         -7.7050    0.5640    1.3590 hx        1 LIG      0.139200
     37 H3         -8.7510    1.0580    0.0480 hx        1 LIG      0.139200
     38 H4         -6.9880    2.4690   -0.7740 hn        1 LIG      0.458800
     39 H5         -7.5720    2.6250    2.1120 hx        1 LIG      0.115700
     40 H6         -8.4860    3.3840    0.8310 hx        1 LIG      0.115700
     41 H7         -5.6170    4.0020    1.5330 hc        1 LIG      0.093033
     42 H8         -6.9930    5.0080    1.9190 hc        1 LIG      0.093033
     43 H9         -6.5320    4.7610    0.2520 hc        1 LIG      0.093033
     44 H10        -5.6060    1.4820    1.6350 hx        1 LIG      0.139200
     45 H11        -4.9930    2.7010    0.5420 hx        1 LIG      0.139200
     46 H12        -3.9810    0.5440    0.0180 hx        1 LIG      0.140950
     47 H13        -5.0290    1.0380   -1.2910 hx        1 LIG      0.140950
     48 H14        -5.7440   -0.8670    0.8420 hn        1 LIG      0.455800
     49 H15        -5.3830   -1.1190   -2.0730 hx        1 LIG      0.106700
     50 H16        -5.7120   -2.4220   -0.9560 hx        1 LIG      0.106700
     51 H17        -3.9720   -3.2220    0.5280 ha        1 LIG      0.130500
     52 H18        -1.6090   -3.4940    0.9230 ha        1 LIG      0.160000
     53 H19        -3.1860   -0.1130   -2.1580 ha        1 LIG      0.130500
     54 H20        -0.8180   -0.3580   -1.7660 ha        1 LIG      0.160000
     55 H21         0.6460   -4.2020   -0.0670 hn        1 LIG      0.315700
     56 H22         1.1130   -0.0870   -0.1100 ha        1 LIG      0.156000
     57 H23         5.4520   -4.0520    0.6980 h5        1 LIG      0.072100
     58 H24         3.4440    0.7750    0.2530 hn        1 LIG      0.441800
     59 H25         6.2370   -0.0530    0.1330 h1        1 LIG      0.092700
     60 H26         5.1460    1.3840    2.5510 hc        1 LIG      0.054367
     61 H27         6.8350    1.0640    2.2420 hc        1 LIG      0.054367
     62 H28         5.7340   -0.2610    2.5320 hc        1 LIG      0.054367
     63 H29         7.6150    1.6310   -0.7870 ha        1 LIG      0.133500
     64 H30         7.8490    3.8180   -1.7810 ha        1 LIG      0.141000
     65 H31         6.0590    5.4280   -1.5900 ha        1 LIG      0.144000
     66 H32         4.0370    4.8500   -0.4060 ha        1 LIG      0.141000
     67 H33         3.7980    2.6580    0.5780 ha        1 LIG      0.133500
@<TRIPOS>BOND
     1    1    2 1   
     2    1    8 1   
     3    2    3 1   
     4    3    4 1   
     5    3    6 1   
     6    4    5 1   
     7    6    7 1   
     8    7    8 1   
     9    8    9 1   
    10    9   10 1   
    11   10   11 ar  
    12   10   13 ar  
    13   11   12 ar  
    14   12   15 ar  
    15   13   14 ar  
    16   14   15 ar  
    17   15   16 1   
    18   16   17 1   
    19   16   18 2   
    20   17   20 1   
    21   18   19 1   
    22   19   20 ar  
    23   19   24 ar  
    24   20   21 ar  
    25   21   22 ar  
    26   22   23 ar  
    27   23   24 ar  
    28   24   25 1   
    29   25   26 1   
    30   26   27 1   
    31   26   28 1   
    32   28   29 ar  
    33   28   33 ar  
    34   29   30 ar  
    35   30   31 ar  
    36   31   32 ar  
    37   32   33 ar  
    38    1   34 1   
    39    1   35 1   
    40    2   36 1   
    41    2   37 1   
    42    3   38 1   
    43    4   39 1   
    44    4   40 1   
    45    5   41 1   
    46    5   42 1   
    47    5   43 1   
    48    6   44 1   
    49    6   45 1   
    50    7   46 1   
    51    7   47 1   
    52    8   48 1   
    53    9   49 1   
    54    9   50 1   
    55   11   51 1   
    56   12   52 1   
    57   13   53 1   
    58   14   54 1   
    59   17   55 1   
    60   18   56 1   
    61   22   57 1   
    62   25   58 1   
    63   26   59 1   
    64   27   60 1   
    65   27   61 1   
    66   27   62 1   
    67   29   63 1   
    68   30   64 1   
    69   31   65 1   
    70   32   66 1   
    71   33   67 1   
@<TRIPOS>SUBSTRUCTURE
     1 LIG         1 TEMP              0 ****  ****    0 ROOT
