@<TRIPOS>MOLECULE
LDO
   23    22     1     0     0
SMALL
bcc


@<TRIPOS>ATOM
      1 N           1.7750    0.2410    1.3580 n4        1 LIG     -0.837600
      2 CA          0.3290    0.5010    1.3860 c3        1 LIG     -0.074500
      3 C          -0.3330   -0.1710    0.1830 c3        1 LIG     -0.097400
      4 C1          0.2610    0.3920   -1.1080 c3        1 LIG     -0.084400
      5 C2         -0.4010   -0.2810   -2.3120 c3        1 LIG     -0.121400
      6 C3          0.1930    0.2820   -3.6040 c3        1 LIG      0.128400
      7 O          -0.4250   -0.3460   -4.7270 oh        1 LIG     -0.591800
      8 C4         -0.2560   -0.0530    2.6580 c         1 LIG      0.936600
      9 O1          0.2420   -1.0210    3.1810 o         1 LIG     -0.754800
     10 OXT        -1.3330    0.5270    3.2110 o         1 LIG     -0.754800
     11 H1          2.1710    0.6160    0.4960 hn        1 LIG      0.443467
     12 H2          1.9400   -0.7650    1.3990 hn        1 LIG      0.443467
     13 H3          2.2170    0.6910    2.1600 hn        1 LIG      0.443467
     14 HA          0.1550    1.5560    1.3440 hx        1 LIG      0.089700
     15 H          -1.3860    0.0190    0.2030 hc        1 LIG      0.087700
     16 H4         -0.1590   -1.2260    0.2240 hc        1 LIG      0.087700
     17 H5          1.3140    0.2030   -1.1280 hc        1 LIG      0.029700
     18 H6          0.0870    1.4470   -1.1500 hc        1 LIG      0.029700
     19 H7         -1.4540   -0.0910   -2.2920 hc        1 LIG      0.056700
     20 H8         -0.2270   -1.3360   -2.2700 hc        1 LIG      0.056700
     21 H9          1.2460    0.0920   -3.6240 h1        1 LIG      0.042700
     22 H10         0.0190    1.3370   -3.6460 h1        1 LIG      0.042700
     23 H11        -0.2680   -1.3020   -4.6900 ho        1 LIG      0.399000
@<TRIPOS>BOND
     1    1    2 1   
     2    2    3 1   
     3    2    8 1   
     4    3    4 1   
     5    4    5 1   
     6    5    6 1   
     7    6    7 1   
     8    8    9 1   
     9    8   10 1   
    10    1   11 1   
    11    1   12 1   
    12    1   13 1   
    13    2   14 1   
    14    3   15 1   
    15    3   16 1   
    16    4   17 1   
    17    4   18 1   
    18    5   19 1   
    19    5   20 1   
    20    6   21 1   
    21    6   22 1   
    22    7   23 1   
@<TRIPOS>SUBSTRUCTURE
     1 LIG         1 TEMP              0 ****  ****    0 ROOT
