@<TRIPOS>MOLECULE
BA1
   66    69     1     0     0
SMALL
bcc


@<TRIPOS>ATOM
      1 C           1.5640   -0.6560   -3.9260 C.        1 LIG      0.688700
      2 C1          2.7740   -0.1920   -3.2190 C.a       1 LIG     -0.201600
      3 C2          3.9600   -0.9270   -3.3030 C.a       1 LIG     -0.042500
      4 C3          5.0860   -0.4910   -2.6430 C.a       1 LIG     -0.193500
      5 C4          5.0450    0.6780   -1.8920 C.a       1 LIG      0.165100
      6 O           6.1580    1.1050   -1.2430 O.h       1 LIG     -0.480100
      7 C5          3.8680    1.4120   -1.8060 C.a       1 LIG     -0.193500
      8 C6          2.7390    0.9850   -2.4690 C.a       1 LIG     -0.042500
      9 O1          1.5990   -1.6790   -4.5820 O.3       1 LIG     -0.637100
     10 N           0.4220    0.0530   -3.8430 N.        1 LIG     -0.556900
     11 N1         -2.0910    0.1270   -6.6390 N.4       1 LIG     -0.755000
     12 C7         -0.7850    0.2070   -5.9540 C.3       1 LIG      0.066800
     13 C8         -0.7780   -0.4070   -4.5450 C.3       1 LIG      0.108700
     14 C9         -1.9820   -0.0660   -3.7060 C.3       1 LIG      0.136100
     15 C10        -3.0700   -1.1570   -3.9190 C.3       1 LIG     -0.127400
     16 C11        -3.6640   -1.0100   -5.2410 C.3       1 LIG     -0.103400
     17 C12        -2.6650   -1.1740   -6.3920 C.3       1 LIG      0.103800
     18 O2         -1.6020   -0.0230   -2.3050 O.2       1 LIG     -0.446900
     19 C13        -2.2550    0.7910   -1.4550 C.        1 LIG      0.677700
     20 O3         -3.1620    1.4900   -1.8600 O.3       1 LIG     -0.546000
     21 C14        -1.8690    0.8340   -0.0270 C.a       1 LIG     -0.072600
     22 C15        -2.5460    1.6790    0.8510 C.a       1 LIG     -0.166500
     23 C16        -2.1880    1.7220    2.1870 C.a       1 LIG      0.236100
     24 O4         -2.8480    2.5450    3.0410 O.h       1 LIG     -0.503100
     25 C17        -1.1410    0.9150    2.6570 C.a       1 LIG     -0.247600
     26 C18        -0.4590    0.0710    1.7690 C.a       1 LIG      0.236100
     27 O5          0.5530   -0.7120    2.2180 O.h       1 LIG     -0.503100
     28 C19        -0.8270    0.0290    0.4350 C.a       1 LIG     -0.166500
     29 C20        -0.7560    0.9580    4.0790 C.        1 LIG      0.629300
     30 O6         -1.2750    1.7660    4.8260 O.3       1 LIG     -0.551100
     31 C21         0.2600    0.0220    4.5970 C.a       1 LIG     -0.246600
     32 C22         1.6000    0.4130    4.6800 C.a       1 LIG      0.128100
     33 O7          1.9730    1.6540    4.2800 O.h       1 LIG     -0.526100
     34 C23         2.5500   -0.4750    5.1690 C.a       1 LIG     -0.182000
     35 C24         2.1770   -1.7400    5.5780 C.a       1 LIG     -0.098000
     36 C25         0.8540   -2.1400    5.5060 C.a       1 LIG     -0.141000
     37 C26        -0.1140   -1.2680    5.0210 C.a       1 LIG     -0.052600
     38 C27        -1.5270   -1.6940    4.9440 C.        1 LIG      0.914200
     39 O8         -1.8640   -2.9650    5.2400 O.3       1 LIG     -0.823800
     40 O9         -2.3840   -0.9000    4.6150 O.3       1 LIG     -0.823800
     41 H           3.9910   -1.7960   -3.8590 H         1 LIG      0.151500
     42 H1          5.9620   -1.0330   -2.7060 H         1 LIG      0.160000
     43 H2          6.9520    0.6110   -1.3000 H         1 LIG      0.427000
     44 H3          3.8400    2.2780   -1.2450 H         1 LIG      0.160000
     45 H4          1.8670    1.5350   -2.4120 H         1 LIG      0.151500
     46 H5          0.3940    0.8800   -3.3100 H         1 LIG      0.345500
     47 H6         -1.9610    0.2600   -7.6420 H         1 LIG      0.446800
     48 H7         -2.7130    0.8540   -6.2860 H         1 LIG      0.446800
     49 H8         -0.5100    1.2380   -5.8730 H         1 LIG      0.122200
     50 H9         -0.0930   -0.3590   -6.5410 H         1 LIG      0.122200
     51 H10        -0.7960   -1.4680   -4.6800 H         1 LIG      0.076700
     52 H11        -2.3670    0.8900   -3.9940 H         1 LIG      0.057700
     53 H12        -3.8310   -1.0500   -3.1740 H         1 LIG      0.098700
     54 H13        -2.6200   -2.1250   -3.8390 H         1 LIG      0.098700
     55 H14        -4.0990   -0.0350   -5.3090 H         1 LIG      0.085200
     56 H15        -4.3880   -1.7900   -5.3450 H         1 LIG      0.085200
     57 H16        -1.8980   -1.8680   -6.1170 H         1 LIG      0.104200
     58 H17        -3.1500   -1.5510   -7.2680 H         1 LIG      0.104200
     59 H18        -3.3150    2.2730    0.5040 H         1 LIG      0.148500
     60 H19        -3.5470    3.0840    2.7260 H         1 LIG      0.468500
     61 H20         0.8020   -0.6840    3.1210 H         1 LIG      0.468500
     62 H21        -0.3310   -0.5980   -0.2180 H         1 LIG      0.148500
     63 H22         1.3320    2.2520    3.9500 H         1 LIG      0.437000
     64 H23         3.5390   -0.1880    5.2270 H         1 LIG      0.140000
     65 H24         2.8900   -2.3920    5.9400 H         1 LIG      0.125000
     66 H25         0.5850   -3.0880    5.8130 H         1 LIG      0.159000
@<TRIPOS>BOND
     1    1    2 1   
     2    1    9 2   
     3    1   10 1   
     4    2    3 ar  
     5    2    8 ar  
     6    3    4 ar  
     7    4    5 ar  
     8    5    6 1   
     9    5    7 ar  
    10    7    8 ar  
    11   10   13 1   
    12   11   12 1   
    13   11   17 1   
    14   12   13 1   
    15   13   14 1   
    16   14   15 1   
    17   14   18 1   
    18   15   16 1   
    19   16   17 1   
    20   18   19 1   
    21   19   20 2   
    22   19   21 1   
    23   21   22 ar  
    24   21   28 ar  
    25   22   23 ar  
    26   23   24 1   
    27   23   25 ar  
    28   25   26 ar  
    29   25   29 1   
    30   26   27 1   
    31   26   28 ar  
    32   29   30 2   
    33   29   31 1   
    34   31   32 ar  
    35   31   37 ar  
    36   32   33 1   
    37   32   34 ar  
    38   34   35 ar  
    39   35   36 ar  
    40   36   37 ar  
    41   37   38 1   
    42   38   39 1   
    43   38   40 1   
    44    3   41 1   
    45    4   42 1   
    46    6   43 1   
    47    7   44 1   
    48    8   45 1   
    49   10   46 1   
    50   11   47 1   
    51   11   48 1   
    52   12   49 1   
    53   12   50 1   
    54   13   51 1   
    55   14   52 1   
    56   15   53 1   
    57   15   54 1   
    58   16   55 1   
    59   16   56 1   
    60   17   57 1   
    61   17   58 1   
    62   22   59 1   
    63   24   60 1   
    64   27   61 1   
    65   28   62 1   
    66   33   63 1   
    67   34   64 1   
    68   35   65 1   
    69   36   66 1   
@<TRIPOS>SUBSTRUCTURE
     1 LIG         1 TEMP              0 ****  ****    0 ROOT
