@<TRIPOS>MOLECULE
LCI
   51    54     1     0     0
SMALL
bcc


@<TRIPOS>ATOM
      1 F          -2.1880    3.3660   -0.3820 F.        1 LIG     -0.111900
      2 C          -1.2320    2.4350   -0.1700 C.a       1 LIG     -0.139700
      3 C1          0.1080    2.7800   -0.1870 C.a       1 LIG      0.427200
      4 N           1.0200    1.8420    0.0250 N.b       1 LIG     -0.744000
      5 C2         -1.5740    1.1010    0.0780 C.a       1 LIG      0.581800
      6 N1         -0.6030    0.2140    0.2830 N.b       1 LIG     -0.733000
      7 C3          0.6670    0.5860    0.2520 C.a       1 LIG      0.834900
      8 N2          1.6530   -0.3630    0.4690 N.h       1 LIG     -0.808900
      9 C4          3.0650    0.0290    0.4450 C.3       1 LIG      0.206500
     10 C5          3.8820   -0.9560    1.2830 C.3       1 LIG     -0.101900
     11 C6          5.3560   -0.5470    1.2590 C.3       1 LIG     -0.097900
     12 C7          3.5740    0.0150   -0.9980 C.3       1 LIG     -0.101900
     13 C8          5.0480    0.4240   -1.0230 C.3       1 LIG     -0.097900
     14 C9          5.8650   -0.5610   -0.1840 C.3       1 LIG      0.116500
     15 N3          7.2800   -0.1680   -0.2080 N.4       1 LIG     -0.843600
     16 C10        -2.9960    0.6820    0.1130 C.c       1 LIG     -0.372800
     17 C11        -4.1150    1.5150   -0.0860 C.c       1 LIG      0.338200
     18 N4         -5.1900    0.7810    0.0220 N.d       1 LIG     -0.496800
     19 N5         -4.8050   -0.5380    0.2910 N.a       1 LIG      0.094400
     20 C12        -5.7090   -1.6740    0.4810 C.3       1 LIG      0.030600
     21 C13        -3.4600   -0.5830    0.3380 C.d       1 LIG     -0.009600
     22 C14        -2.6190   -1.8060    0.5960 C.3       1 LIG      0.003900
     23 C15        -2.2900   -2.4890   -0.7330 C.x       1 LIG     -0.119700
     24 C16        -0.8190   -2.5560   -1.1480 C.x       1 LIG     -0.127900
     25 C17        -1.5390   -3.8210   -0.6770 C.x       1 LIG     -0.127900
     26 H           0.3940    3.7560   -0.3630 H         1 LIG      0.045100
     27 H1          1.4050   -1.3000    0.6390 H         1 LIG      0.418800
     28 H2          3.1680    1.0140    0.8500 H         1 LIG      0.094700
     29 H3          3.7790   -1.9410    0.8770 H         1 LIG      0.076950
     30 H4          3.5260   -0.9460    2.2920 H         1 LIG      0.076950
     31 H5          5.9270   -1.2360    1.8450 H         1 LIG      0.069450
     32 H6          5.4600    0.4380    1.6650 H         1 LIG      0.069450
     33 H7          3.0030    0.7040   -1.5840 H         1 LIG      0.076950
     34 H8          3.4700   -0.9700   -1.4030 H         1 LIG      0.076950
     35 H9          5.1520    1.4090   -0.6180 H         1 LIG      0.069450
     36 H10         5.4040    0.4140   -2.0320 H         1 LIG      0.069450
     37 H11         5.7610   -1.5460   -0.5890 H         1 LIG      0.111700
     38 H12         7.3790    0.7710    0.1780 H         1 LIG      0.458467
     39 H13         7.6190   -0.1770   -1.1700 H         1 LIG      0.458467
     40 H14         7.8250   -0.8250    0.3510 H         1 LIG      0.458467
     41 H15        -4.0900    2.5280   -0.2830 H         1 LIG      0.058100
     42 H16        -6.7220   -1.3430    0.3890 H         1 LIG      0.066700
     43 H17        -5.5570   -2.0920    1.4540 H         1 LIG      0.066700
     44 H18        -5.5080   -2.4180   -0.2620 H         1 LIG      0.066700
     45 H19        -1.7110   -1.5180    1.0830 H         1 LIG      0.070700
     46 H20        -3.1600   -2.4850    1.2220 H         1 LIG      0.070700
     47 H21        -3.1920   -2.1480   -1.1950 H         1 LIG      0.084700
     48 H22        -0.0680   -2.1070   -0.5320 H         1 LIG      0.071450
     49 H23        -0.2660   -2.2810   -2.0220 H         1 LIG      0.071450
     50 H24        -1.7720   -4.5960   -1.3770 H         1 LIG      0.071450
     51 H25        -1.3590   -4.5570    0.0790 H         1 LIG      0.071450
@<TRIPOS>BOND
     1    2    1 1   
     2    3    2 ar  
     3    4    3 ar  
     4    5    2 ar  
     5    5   16 1   
     6    6    5 ar  
     7    7    4 ar  
     8    7    6 ar  
     9    8    7 1   
    10    9    8 1   
    11   10    9 1   
    12   11   10 1   
    13   12    9 1   
    14   13   12 1   
    15   14   11 1   
    16   14   13 1   
    17   15   14 1   
    18   16   17 ar  
    19   17   18 ar  
    20   19   20 1   
    21   19   18 ar  
    22   21   16 ar  
    23   21   19 ar  
    24   22   23 1   
    25   22   21 1   
    26   23   25 1   
    27   24   23 1   
    28   24   25 1   
    29    3   26 1   
    30    8   27 1   
    31    9   28 1   
    32   10   29 1   
    33   10   30 1   
    34   11   31 1   
    35   11   32 1   
    36   12   33 1   
    37   12   34 1   
    38   13   35 1   
    39   13   36 1   
    40   14   37 1   
    41   15   38 1   
    42   15   39 1   
    43   15   40 1   
    44   17   41 1   
    45   20   42 1   
    46   20   43 1   
    47   20   44 1   
    48   22   45 1   
    49   22   46 1   
    50   23   47 1   
    51   24   48 1   
    52   24   49 1   
    53   25   50 1   
    54   25   51 1   
@<TRIPOS>SUBSTRUCTURE
     1 LIG         1 TEMP              0 ****  ****    0 ROOT
