@<TRIPOS>MOLECULE
E89
   42    45     1     0     0
SMALL
bcc


@<TRIPOS>ATOM
      1 C          -0.8760   -0.1410   -3.8670 C.a       1 LIG     -0.064000
      2 C1          0.3820   -0.0410   -3.2830 C.a       1 LIG     -0.180600
      3 C2          1.6100   -0.1800   -4.0770 C.        1 LIG      0.717100
      4 O           1.5660   -0.3880   -5.2750 O.3       1 LIG     -0.628500
      5 N           2.7920   -0.0690   -3.4280 N.        1 LIG     -0.504400
      6 C3          2.8280    0.1630   -2.0830 C.c       1 LIG      0.650800
      7 N1          4.0520    0.2680   -1.4700 N.h       1 LIG     -0.879800
      8 N2          1.7520    0.2910   -1.3510 N.d       1 LIG     -0.670100
      9 C4          0.5100    0.2050   -1.8930 C.a       1 LIG      0.183400
     10 C5         -0.6280    0.3370   -1.1070 C.a       1 LIG     -0.015300
     11 C6         -0.5020    0.5930    0.3710 C.3       1 LIG     -0.022100
     12 C7         -0.4620   -0.7400    1.1190 C.3       1 LIG     -0.027100
     13 C8         -0.3360   -0.4840    2.5980 C.a       1 LIG     -0.108300
     14 C9         -1.4730   -0.3480    3.3740 C.a       1 LIG     -0.095500
     15 C10        -1.3600   -0.1130    4.7310 C.a       1 LIG     -0.179500
     16 C11        -0.1060   -0.0130    5.3150 C.a       1 LIG      0.117100
     17 O1          0.0070    0.2170    6.6490 O.2       1 LIG     -0.328900
     18 C12         1.4050    0.2660    6.9430 C.3       1 LIG      0.114700
     19 C13         1.0320   -0.1450    4.5330 C.a       1 LIG     -0.179500
     20 C14         0.9140   -0.3850    3.1780 C.a       1 LIG     -0.095500
     21 C15        -1.8880    0.2360   -1.6970 C.a       1 LIG      0.104400
     22 N3         -3.1500    0.3230   -1.2050 N.c       1 LIG     -0.577100
     23 C16        -4.0100    0.1570   -2.1680 C.d       1 LIG      0.441700
     24 N4         -3.3640   -0.0470   -3.3460 N.a       1 LIG     -0.294300
     25 C17        -2.0050   -0.0030   -3.0820 C.a       1 LIG     -0.096200
     26 H          -0.9660   -0.3170   -4.8800 H         1 LIG      0.163000
     27 H1          3.6340   -0.1560   -3.9300 H         1 LIG      0.336500
     28 H2          4.8770    0.1750   -1.9990 H         1 LIG      0.408800
     29 H3          4.1050    0.4360   -0.5010 H         1 LIG      0.408800
     30 H4         -1.3420    1.1650    0.7070 H         1 LIG      0.065200
     31 H5          0.4000    1.1360    0.5630 H         1 LIG      0.065200
     32 H6          0.3780   -1.3120    0.7830 H         1 LIG      0.054200
     33 H7         -1.3640   -1.2830    0.9270 H         1 LIG      0.054200
     34 H8         -2.4060   -0.4220    2.9390 H         1 LIG      0.136500
     35 H9         -2.2080   -0.0120    5.3100 H         1 LIG      0.140000
     36 H10         1.5440    0.4460    7.9890 H         1 LIG      0.042367
     37 H11         1.8600    1.0550    6.3820 H         1 LIG      0.042367
     38 H12         1.8580   -0.6670    6.6790 H         1 LIG      0.042367
     39 H13         1.9660   -0.0640    4.9630 H         1 LIG      0.140000
     40 H14         1.7610   -0.4910    2.5980 H         1 LIG      0.136500
     41 H15        -5.0350    0.1770   -2.0530 H         1 LIG      0.070800
     42 H16        -3.7840   -0.1980   -4.2240 H         1 LIG      0.310700
@<TRIPOS>BOND
     1    1    2 ar  
     2    1   25 ar  
     3    2    3 1   
     4    2    9 ar  
     5    3    4 2   
     6    3    5 1   
     7    5    6 1   
     8    6    7 1   
     9    6    8 2   
    10    8    9 1   
    11    9   10 ar  
    12   10   11 1   
    13   10   21 ar  
    14   11   12 1   
    15   12   13 1   
    16   13   14 ar  
    17   13   20 ar  
    18   14   15 ar  
    19   15   16 ar  
    20   16   17 1   
    21   16   19 ar  
    22   17   18 1   
    23   19   20 ar  
    24   21   22 1   
    25   21   25 ar  
    26   22   23 2   
    27   23   24 1   
    28   24   25 1   
    29    1   26 1   
    30    5   27 1   
    31    7   28 1   
    32    7   29 1   
    33   11   30 1   
    34   11   31 1   
    35   12   32 1   
    36   12   33 1   
    37   14   34 1   
    38   15   35 1   
    39   18   36 1   
    40   18   37 1   
    41   18   38 1   
    42   19   39 1   
    43   20   40 1   
    44   23   41 1   
    45   24   42 1   
@<TRIPOS>SUBSTRUCTURE
     1 LIG         1 TEMP              0 ****  ****    0 ROOT
