@<TRIPOS>MOLECULE
DBY
   24    24     1     0     0
SMALL
bcc


@<TRIPOS>ATOM
      1 N           1.0550    1.1700    3.0640 n4        1 LIG     -0.834600
      2 CA         -0.1680    0.4100    3.3520 c3        1 LIG     -0.075500
      3 C          -0.2300    0.0950    4.8240 c         1 LIG      0.938600
      4 O           0.7900   -0.0480    5.4550 o         1 LIG     -0.752800
      5 C1         -0.1590   -0.8930    2.5520 c3        1 LIG     -0.046100
      6 C2         -0.0980   -0.5780    1.0790 ca        1 LIG     -0.151300
      7 C3          1.1260   -0.4540    0.4510 ca        1 LIG     -0.067000
      8 C4          1.1860   -0.1660   -0.8990 ca        1 LIG     -0.090900
      9 C5         -1.2670   -0.4200    0.3580 ca        1 LIG     -0.067000
     10 C6         -1.2130   -0.1260   -0.9910 ca        1 LIG     -0.090900
     11 C7          0.0140   -0.0010   -1.6240 ca        1 LIG      0.190100
     12 O1          0.0690    0.2810   -2.9530 oh        1 LIG     -0.469100
     13 Br          2.8620    0.0030   -1.7580 br        1 LIG     -0.053100
     14 Br1        -2.8130    0.0950   -1.9750 br        1 LIG     -0.053100
     15 OXT        -1.4190   -0.0250    5.4360 o         1 LIG     -0.752800
     16 H1          1.0490    2.0390    3.5980 hn        1 LIG      0.444800
     17 H2          1.0960    1.3830    2.0670 hn        1 LIG      0.444800
     18 H3          1.8700    0.6150    3.3270 hn        1 LIG      0.444800
     19 HA         -1.0220    0.9920    3.0760 hx        1 LIG      0.090700
     20 H          -1.0500   -1.4460    2.7620 hc        1 LIG      0.096700
     21 H4          0.6950   -1.4750    2.8280 hc        1 LIG      0.096700
     22 H5          1.9970   -0.5770    0.9910 ha        1 LIG      0.157500
     23 H6         -2.1800   -0.5220    0.8280 ha        1 LIG      0.157500
     24 H7          0.8990    0.3650   -3.3800 ho        1 LIG      0.440000
@<TRIPOS>BOND
     1    1    2 1   
     2    2    3 1   
     3    2    5 1   
     4    3    4 1   
     5    3   15 1   
     6    5    6 1   
     7    6    7 ar  
     8    6    9 ar  
     9    7    8 ar  
    10    8   11 ar  
    11    8   13 1   
    12    9   10 ar  
    13   10   11 ar  
    14   10   14 1   
    15   11   12 1   
    16    1   16 1   
    17    1   17 1   
    18    1   18 1   
    19    2   19 1   
    20    5   20 1   
    21    5   21 1   
    22    7   22 1   
    23    9   23 1   
    24   12   24 1   
@<TRIPOS>SUBSTRUCTURE
     1 LIG         1 TEMP              0 ****  ****    0 ROOT
