@<TRIPOS>MOLECULE
F6A
   39    41     1     0     0
SMALL
bcc


@<TRIPOS>ATOM
      1 N          -0.2220   -0.6420   -0.5060 n         1 LIG     -0.462100
      2 O          -1.4850    1.0600    0.1580 o         1 LIG     -0.571100
      3 C          -3.9640    1.0570    0.5410 c3        1 LIG      0.683200
      4 F          -5.2950    1.3730    0.8340 f         1 LIG     -0.231967
      5 C1         -3.8710   -0.3890    0.1270 ca        1 LIG     -0.143300
      6 F1         -3.5100    1.8710   -0.5010 f         1 LIG     -0.231967
      7 C2         -2.6350   -0.9400   -0.2160 ca        1 LIG     -0.094600
      8 F2         -3.1740    1.2680    1.6770 f         1 LIG     -0.231967
      9 C3         -2.5570   -2.2800   -0.5990 ca        1 LIG     -0.092000
     10 C4         -3.7000   -3.0510   -0.6350 ca        1 LIG     -0.105000
     11 C5         -4.9220   -2.4990   -0.2940 ca        1 LIG     -0.116000
     12 C6         -5.0060   -1.1730    0.0910 ca        1 LIG     -0.092000
     13 C7         -1.4140   -0.1070   -0.1750 c         1 LIG      0.674700
     14 C8          0.9140    0.1700   -0.5750 ca        1 LIG      0.067600
     15 C9          2.1550   -0.3430   -0.2290 ca        1 LIG     -0.167000
     16 C10         3.2840    0.4700   -0.2990 cp        1 LIG     -0.012000
     17 C11         3.1600    1.7940   -0.7160 ca        1 LIG     -0.143000
     18 C12         1.9200    2.2980   -1.0580 ca        1 LIG     -0.108000
     19 C13         0.8000    1.4900   -0.9940 ca        1 LIG     -0.150000
     20 C14         4.6150   -0.0730    0.0690 cp        1 LIG     -0.039000
     21 C15         5.7450    0.7400   -0.0010 ca        1 LIG     -0.117500
     22 C16         6.9800    0.2300    0.3440 ca        1 LIG     -0.131000
     23 C17         7.0980   -1.0840    0.7580 ca        1 LIG     -0.127000
     24 C18         5.9800   -1.8950    0.8290 ca        1 LIG     -0.131000
     25 C19         4.7390   -1.3950    0.4920 ca        1 LIG     -0.117500
     26 H          -0.1510   -1.6050   -0.6990 hn        1 LIG      0.326500
     27 H1         -1.6460   -2.6930   -0.8550 ha        1 LIG      0.162000
     28 H2         -3.6440   -4.0420   -0.9170 ha        1 LIG      0.148000
     29 H3         -5.7750   -3.0790   -0.3270 ha        1 LIG      0.147000
     30 H4         -5.9190   -0.7690    0.3520 ha        1 LIG      0.158000
     31 H5          2.2420   -1.3240    0.0790 ha        1 LIG      0.136000
     32 H6          3.9950    2.3980   -0.7690 ha        1 LIG      0.137000
     33 H7          1.8290    3.2800   -1.3620 ha        1 LIG      0.136000
     34 H8         -0.1230    1.8680   -1.2580 ha        1 LIG      0.173000
     35 H9          5.6580    1.7210   -0.3100 ha        1 LIG      0.135500
     36 H10         7.8170    0.8310    0.2930 ha        1 LIG      0.131500
     37 H11         8.0240   -1.4610    1.0150 ha        1 LIG      0.132000
     38 H12         6.0740   -2.8760    1.1350 ha        1 LIG      0.131500
     39 H13         3.9040   -1.9990    0.5530 ha        1 LIG      0.135500
@<TRIPOS>BOND
     1    1   13 1   
     2    1   14 1   
     3    2   13 2   
     4    3    4 1   
     5    3    5 1   
     6    3    6 1   
     7    3    8 1   
     8    5    7 ar  
     9    5   12 ar  
    10    7    9 ar  
    11    7   13 1   
    12    9   10 ar  
    13   10   11 ar  
    14   11   12 ar  
    15   14   15 ar  
    16   14   19 ar  
    17   15   16 ar  
    18   16   17 ar  
    19   16   20 1   
    20   17   18 ar  
    21   18   19 ar  
    22   20   21 ar  
    23   20   25 ar  
    24   21   22 ar  
    25   22   23 ar  
    26   23   24 ar  
    27   24   25 ar  
    28    1   26 1   
    29    9   27 1   
    30   10   28 1   
    31   11   29 1   
    32   12   30 1   
    33   15   31 1   
    34   17   32 1   
    35   18   33 1   
    36   19   34 1   
    37   21   35 1   
    38   22   36 1   
    39   23   37 1   
    40   24   38 1   
    41   25   39 1   
@<TRIPOS>SUBSTRUCTURE
     1 LIG         1 TEMP              0 ****  ****    0 ROOT
