@<TRIPOS>MOLECULE
ATF
   48    50     1     0     0
SMALL
bcc


@<TRIPOS>ATOM
      1 P           0.9980    0.0870   -6.8460 P.5       1 LIG      1.608300
      2 O           1.4680    1.4820   -6.6860 O.3       1 LIG     -0.860300
      3 O1          1.9530   -0.6830   -7.8880 O.h       1 LIG     -0.792400
      4 O2         -0.5110    0.0900   -7.4030 O.h       1 LIG     -0.792400
      5 P1         -0.0310    0.1130   -4.0530 P.5       1 LIG      1.677300
      6 O3          0.4380    1.5070   -3.8930 O.3       1 LIG     -0.854300
      7 O4         -1.5410    0.1160   -4.6100 O.h       1 LIG     -0.771400
      8 C           1.0490   -0.7590   -5.2330 C.3       1 LIG     -0.124800
      9 F           2.3620   -0.7620   -4.7490 F.        1 LIG     -0.240300
     10 F1          0.6060   -2.0780   -5.3850 F.        1 LIG     -0.240300
     11 P2         -0.9570    0.1840   -1.6410 P.5       1 LIG      1.568800
     12 O5         -2.3320    0.1860   -2.1900 O.3       1 LIG     -0.816500
     13 O6         -0.4310    1.7000   -1.5070 O.3       1 LIG     -0.816500
     14 O7          0.0130   -0.6350   -2.6290 O.2       1 LIG     -0.661800
     15 O8         -0.9600   -0.5120   -0.1900 O.2       1 LIG     -0.571200
     16 C1         -1.8360    0.2570    0.6360 C.3       1 LIG      0.168400
     17 C2         -1.8840   -0.3550    2.0370 C.3       1 LIG      0.070100
     18 O9         -0.5720   -0.3320    2.6410 O.2       1 LIG     -0.407600
     19 C3         -2.7640    0.5040    2.9720 C.3       1 LIG      0.083100
     20 O10        -4.0770   -0.0510    3.0740 O.h       1 LIG     -0.588800
     21 C4         -2.0390    0.4370    4.3360 C.3       1 LIG      0.076100
     22 O11        -2.8830   -0.1570    5.3240 O.h       1 LIG     -0.559800
     23 C5         -0.8060   -0.4500    4.0610 C.3       1 LIG      0.224800
     24 N           0.3530    0.0390    4.8110 N.a       1 LIG     -0.287000
     25 C6          1.2500    0.9750    4.3880 C.c       1 LIG      0.445700
     26 N1          2.1520    1.1720    5.3050 N.d       1 LIG     -0.559100
     27 C7          1.8900    0.3810    6.3730 C.a       1 LIG     -0.214200
     28 C8          2.5060    0.1640    7.6170 C.a       1 LIG      0.732200
     29 N2          3.6490    0.8590    7.9720 N.h       1 LIG     -0.943500
     30 N3          1.9640   -0.7210    8.4470 N.b       1 LIG     -0.796000
     31 C9          0.8740   -1.3890    8.1160 C.a       1 LIG      0.667900
     32 N4          0.2660   -1.2220    6.9610 N.b       1 LIG     -0.722000
     33 C10         0.7350   -0.3580    6.0670 C.a       1 LIG      0.446800
     34 H           1.9250   -0.2320   -8.7460 H         1 LIG      0.480000
     35 H1         -0.5380    0.5400   -8.2620 H         1 LIG      0.480000
     36 H2         -1.5680    0.5670   -5.4680 H         1 LIG      0.488000
     37 H3         -2.8180    0.2550    0.2120 H         1 LIG      0.063200
     38 H4         -1.4760    1.2630    0.6980 H         1 LIG      0.063200
     39 H5         -2.2630   -1.3500    1.9270 H         1 LIG      0.110700
     40 H6         -2.8860    1.5070    2.6190 H         1 LIG      0.104700
     41 H7         -4.0180   -0.9650    3.3930 H         1 LIG      0.408000
     42 H8         -1.7730    1.4030    4.7120 H         1 LIG      0.104700
     43 H9         -3.1540   -1.0400    5.0290 H         1 LIG      0.409000
     44 H10        -0.9650   -1.4650    4.3610 H         1 LIG      0.093700
     45 H11         1.2180    1.4560    3.4750 H         1 LIG      0.141800
     46 H12         4.0410    1.5120    7.3490 H         1 LIG      0.430800
     47 H13         4.0700    0.7000    8.8480 H         1 LIG      0.430800
     48 H14         0.4840   -2.0680    8.7890 H         1 LIG      0.042100
@<TRIPOS>BOND
     1    1    2 2   
     2    1    3 1   
     3    1    4 1   
     4    1    8 1   
     5    5    6 2   
     6    5    7 1   
     7    5    8 1   
     8    5   14 1   
     9    8    9 1   
    10    8   10 1   
    11   11   12 1   
    12   11   13 1   
    13   11   14 1   
    14   11   15 1   
    15   15   16 1   
    16   16   17 1   
    17   17   18 1   
    18   17   19 1   
    19   18   23 1   
    20   19   20 1   
    21   19   21 1   
    22   21   22 1   
    23   21   23 1   
    24   23   24 1   
    25   24   25 1   
    26   24   33 1   
    27   25   26 2   
    28   26   27 1   
    29   27   28 ar  
    30   27   33 ar  
    31   28   29 1   
    32   28   30 ar  
    33   30   31 ar  
    34   31   32 ar  
    35   32   33 ar  
    36    3   34 1   
    37    4   35 1   
    38    7   36 1   
    39   16   37 1   
    40   16   38 1   
    41   17   39 1   
    42   19   40 1   
    43   20   41 1   
    44   21   42 1   
    45   22   43 1   
    46   23   44 1   
    47   25   45 1   
    48   29   46 1   
    49   29   47 1   
    50   31   48 1   
@<TRIPOS>SUBSTRUCTURE
     1 LIG         1 TEMP              0 ****  ****    0 ROOT
