@<TRIPOS>MOLECULE
W06
   43    44     1     0     0
SMALL
bcc


@<TRIPOS>ATOM
      1 F          -6.3860    0.2450   -0.3650 f         0 UNK     -0.210633
      2 C          -5.1590    0.7290    0.1000 c3        0 UNK      0.595900
      3 F1         -4.9470    2.0190   -0.3970 f         0 UNK     -0.210633
      4 F2         -5.1710    0.7630    1.4980 f         0 UNK     -0.210633
      5 C1         -4.0340   -0.1920   -0.3780 c3        0 UNK      0.347600
      6 F3         -4.2460   -1.4830    0.1190 f         0 UNK     -0.181800
      7 F4         -4.0220   -0.2270   -1.7760 f         0 UNK     -0.181800
      8 C2         -2.6910    0.3360    0.1310 c3        0 UNK      0.333600
      9 F5         -2.4800    1.6270   -0.3660 f         0 UNK     -0.185300
     10 F6         -2.7030    0.3710    1.5300 f         0 UNK     -0.185300
     11 C3         -1.5670   -0.5850   -0.3470 c3        0 UNK      0.373600
     12 F7         -1.7780   -1.8760    0.1500 f         0 UNK     -0.182300
     13 F8         -1.5550   -0.6200   -1.7450 f         0 UNK     -0.182300
     14 C4         -0.2240   -0.0570    0.1620 c3        0 UNK      0.297600
     15 F9         -0.0120    1.2340   -0.3350 f         0 UNK     -0.206800
     16 F10        -0.2360   -0.0220    1.5610 f         0 UNK     -0.206800
     17 C5          0.8840   -0.9640   -0.3080 c         0 UNK      0.639100
     18 O           0.7340   -1.6370   -1.3060 o         0 UNK     -0.617100
     19 N           2.0400   -1.0280    0.3810 n         1 TRP     -0.462900
     20 CA          3.1170   -1.9100   -0.0770 c3        1 TRP     -0.064300
     21 C           2.8890   -3.3000    0.4580 c         1 TRP      0.915600
     22 OXT         1.9260   -3.5310    1.1510 o         1 TRP     -0.813300
     23 O           3.7560   -4.2830    0.1660 o         1 TRP     -0.813300
     24 CB          4.4600   -1.3820    0.4320 c3        1 TRP     -0.012200
     25 CG          4.7450   -0.0440   -0.2000 cc        1 TRP     -0.118400
     26 CD2         4.2790    1.2610    0.2750 ca        1 TRP     -0.086800
     27 CE3         3.4960    1.6790    1.3530 ca        1 TRP     -0.079000
     28 CZ3         3.2330    3.0080    1.5260 ca        1 TRP     -0.173000
     29 CH2         3.7370    3.9480    0.6370 ca        1 TRP     -0.127000
     30 CZ2         4.5120    3.5580   -0.4330 ca        1 TRP     -0.155000
     31 CE2         4.7920    2.2100   -0.6280 ca        1 TRP     -0.054200
     32 NE1         5.5140    1.5190   -1.5760 na        1 TRP     -0.197400
     33 CD1         5.4790    0.1790   -1.3010 cd        1 TRP     -0.106100
     34 H           2.1610   -0.4830    1.1920 hn        1 TRP      0.347500
     35 HA          3.1260   -1.9360   -1.1470 h1        1 TRP      0.070700
     36 HB1         5.2360   -2.0720    0.1730 hc        1 TRP      0.067700
     37 HB2         4.4210   -1.2730    1.4960 hc        1 TRP      0.067700
     38 HE3         3.1170    0.9860    2.0170 ha        1 TRP      0.137000
     39 HZ3         2.6550    3.3160    2.3240 ha        1 TRP      0.117000
     40 HH2         3.5290    4.9490    0.7790 ha        1 TRP      0.114000
     41 HZ2         4.8840    4.2640   -1.0880 ha        1 TRP      0.120000
     42 HE1         5.9850    1.9280   -2.3380 hn        1 TRP      0.285700
     43 HD1         5.9480   -0.5520   -1.8580 h4        1 TRP      0.196000
@<TRIPOS>BOND
     1    1    2 1   
     2    2    3 1   
     3    2    5 1   
     4    4    2 1   
     5    5    7 1   
     6    5    8 1   
     7    6    5 1   
     8    8   10 1   
     9    8   11 1   
    10    9    8 1   
    11   11   14 1   
    12   11   12 1   
    13   13   11 1   
    14   14   17 1   
    15   14   15 1   
    16   16   14 1   
    17   17   19 1   
    18   18   17 2   
    19   19   20 1   
    20   20   21 1   
    21   20   24 1   
    22   21   23 1   
    23   22   21 1   
    24   24   25 1   
    25   25   33 2   
    26   25   26 1   
    27   26   31 ar  
    28   27   26 ar  
    29   27   28 ar  
    30   28   29 ar  
    31   29   30 ar  
    32   31   30 ar  
    33   32   31 1   
    34   33   32 1   
    35   19   34 1   
    36   20   35 1   
    37   24   36 1   
    38   24   37 1   
    39   27   38 1   
    40   28   39 1   
    41   29   40 1   
    42   30   41 1   
    43   32   42 1   
    44   33   43 1   
@<TRIPOS>SUBSTRUCTURE
     1 UNK         1 TEMP              0 ****  ****    0 ROOT
