@<TRIPOS>MOLECULE
TLA
   14    13     1     0     0
SMALL
bcc


@<TRIPOS>ATOM
      1 O           0.6780    0.3900   -2.6440 o         1 LIG     -0.870800
      2 O1         -1.2340   -0.6740   -2.3420 o         1 LIG     -0.870800
      3 C          -0.2270    0.0960   -1.9010 c         1 LIG      0.891600
      4 C1         -0.2280    0.5960   -0.4790 c3        1 LIG      0.021100
      5 O2          0.9380    1.3890   -0.2530 oh        1 LIG     -0.639800
      6 C2         -0.2270   -0.5960    0.4790 c3        1 LIG      0.021100
      7 O3          0.9390   -1.3890    0.2530 oh        1 LIG     -0.639800
      8 C3         -0.2270   -0.0970    1.9010 c         1 LIG      0.891600
      9 O4          0.6780   -0.3900    2.6440 o         1 LIG     -0.870800
     10 O5         -1.2340    0.6730    2.3420 o         1 LIG     -0.870800
     11 H          -1.1020    1.1900   -0.3090 h1        1 LIG      0.062700
     12 H1          1.7300    0.8510   -0.4070 ho        1 LIG      0.406000
     13 H2         -1.1000   -1.1900    0.3090 h1        1 LIG      0.062700
     14 H3          1.7310   -0.8510    0.4070 ho        1 LIG      0.406000
@<TRIPOS>BOND
     1    1    3 1   
     2    2    3 1   
     3    3    4 1   
     4    4    5 1   
     5    4    6 1   
     6    6    7 1   
     7    6    8 1   
     8    8    9 1   
     9    8   10 1   
    10    4   11 1   
    11    5   12 1   
    12    6   13 1   
    13    7   14 1   
@<TRIPOS>SUBSTRUCTURE
     1 LIG         1 TEMP              0 ****  ****    0 ROOT
