@<TRIPOS>MOLECULE
DIV
   19    18     1     0     0
SMALL
bcc


@<TRIPOS>ATOM
      1 N           0.4190    1.4030   -0.7800 N.4       1 LIG     -0.838600
      2 C           0.2310    0.2320    0.0880 C.3       1 LIG     -0.059800
      3 C1          1.1930   -0.8790   -0.3390 C.3       1 LIG     -0.093400
      4 C2          2.6340   -0.3800   -0.2190 C.3       1 LIG     -0.106100
      5 C3          0.5160    0.6230    1.5390 C.3       1 LIG     -0.101100
      6 C4         -1.1890   -0.2590   -0.0310 C.        1 LIG      0.941600
      7 O          -1.4260   -1.4420    0.0310 O.3       1 LIG     -0.754800
      8 O1         -2.1900    0.6180   -0.2060 O.3       1 LIG     -0.754800
      9 H           1.3800    1.7350   -0.6990 H         1 LIG      0.442133
     10 H1         -0.2220    2.1440   -0.4950 H         1 LIG      0.442133
     11 H2          0.2290    1.1430   -1.7480 H         1 LIG      0.442133
     12 H3          0.9940   -1.1530   -1.3540 H         1 LIG      0.083200
     13 H4          1.0570   -1.7310    0.2940 H         1 LIG      0.083200
     14 H5          2.7700    0.4720   -0.8520 H         1 LIG      0.033700
     15 H6          3.3070   -1.1570   -0.5170 H         1 LIG      0.033700
     16 H7          2.8330   -0.1060    0.7960 H         1 LIG      0.033700
     17 H8          1.5240    0.9720    1.6230 H         1 LIG      0.057367
     18 H9          0.3790   -0.2290    2.1710 H         1 LIG      0.057367
     19 H10        -0.1560    1.4000    1.8380 H         1 LIG      0.057367
@<TRIPOS>BOND
     1    1    2 1   
     2    2    3 1   
     3    2    5 1   
     4    2    6 1   
     5    3    4 1   
     6    6    7 1   
     7    6    8 1   
     8    1    9 1   
     9    1   10 1   
    10    1   11 1   
    11    3   12 1   
    12    3   13 1   
    13    4   14 1   
    14    4   15 1   
    15    4   16 1   
    16    5   17 1   
    17    5   18 1   
    18    5   19 1   
@<TRIPOS>SUBSTRUCTURE
     1 LIG         1 TEMP              0 ****  ****    0 ROOT
