@<TRIPOS>MOLECULE
71N
   20    21     1     0     0
SMALL
bcc


@<TRIPOS>ATOM
      1 F           3.0030   -1.4390   -0.3400 F.        1 LIG     -0.221967
      2 F1          3.1510    0.1700    1.2740 F.        1 LIG     -0.221967
      3 F2          3.2050    0.7580   -0.9330 F.        1 LIG     -0.221967
      4 C          -0.9570   -0.5080    0.0010 C.a       1 LIG      0.094400
      5 C1         -2.2130   -1.1210    0.0010 C.a       1 LIG     -0.135000
      6 C2         -2.0260    1.6620   -0.0010 C.a       1 LIG     -0.100000
      7 C3         -0.8700    0.8940   -0.0000 C.a       1 LIG     -0.094200
      8 C4         -3.2590    1.0490   -0.0010 C.a       1 LIG     -0.148000
      9 C5         -3.3550   -0.3420    0.0010 C.a       1 LIG      0.120600
     10 C6          1.1540    0.0100    0.0000 C.c       1 LIG      0.320800
     11 C7          2.6550   -0.1280    0.0000 C.3       1 LIG      0.647600
     12 N           0.4810    1.1910   -0.0000 N.a       1 LIG     -0.250300
     13 N1          0.3150   -0.9840   -0.0040 N.d       1 LIG     -0.509100
     14 N2         -4.6140   -0.9530    0.0010 N.h       1 LIG     -0.814200
     15 H          -2.2880   -2.1500    0.0010 H         1 LIG      0.155000
     16 H1         -1.9620    2.6920   -0.0020 H         1 LIG      0.141000
     17 H2         -4.1170    1.6220   -0.0030 H         1 LIG      0.138000
     18 H3          0.8810    2.0910    0.0000 H         1 LIG      0.319700
     19 H4         -4.6850   -1.9350    0.0020 H         1 LIG      0.389300
     20 H5         -5.4290   -0.4010   -0.0000 H         1 LIG      0.389300
@<TRIPOS>BOND
     1    1   11 1   
     2    3   11 1   
     3    4    5 ar  
     4    5    9 ar  
     5    6    8 ar  
     6    7    4 ar  
     7    7    6 ar  
     8    8    9 ar  
     9    9   14 1   
    10   10   12 1   
    11   10   13 2   
    12   11    2 1   
    13   11   10 1   
    14   12    7 1   
    15   13    4 1   
    16    5   15 1   
    17    6   16 1   
    18    8   17 1   
    19   12   18 1   
    20   14   19 1   
    21   14   20 1   
@<TRIPOS>SUBSTRUCTURE
     1 LIG         1 TEMP              0 ****  ****    0 ROOT
