@<TRIPOS>MOLECULE
CTZ
   54    58     1     0     0
SMALL
bcc


@<TRIPOS>ATOM
      1 N           0.1920   -0.4410    1.8700 n2        1 LIG     -0.344200
      2 C           1.5520   -0.4730    2.4270 c3        1 LIG      0.265000
      3 C1          2.4500   -0.3470    1.2150 c         1 LIG      0.581300
      4 N1          1.6110   -0.2570    0.1570 n         1 LIG     -0.171200
      5 C2          1.8800   -0.1260   -1.1830 cc        1 LIG     -0.098600
      6 C3          0.8690   -0.0560   -2.0860 cd        1 LIG      0.358800
      7 N2         -0.4180   -0.1100   -1.7110 nd        1 LIG     -0.593000
      8 C4         -0.7540   -0.2340   -0.4570 cc        1 LIG      0.427600
      9 C5          0.2960   -0.3160    0.5690 cc        1 LIG     -0.008600
     10 C6          1.7690    0.7020    3.3810 c3        1 LIG     -0.036100
     11 C7          0.8300    0.5780    4.5540 ca        1 LIG     -0.133300
     12 C8          1.2260   -0.1120    5.6840 ca        1 LIG     -0.080500
     13 C9          0.3670   -0.2270    6.7610 ca        1 LIG     -0.186500
     14 C10        -0.8920    0.3500    6.7060 ca        1 LIG      0.132100
     15 C11        -1.2890    1.0370    5.5680 ca        1 LIG     -0.186500
     16 C12        -0.4240    1.1540    4.4970 ca        1 LIG     -0.080500
     17 O          -1.7380    0.2380    7.7640 oh        1 LIG     -0.495100
     18 O1          3.6620   -0.3270    1.1950 o         1 LIG     -0.529500
     19 C13         1.1960    0.0850   -3.5260 ca        1 LIG     -0.163500
     20 C14         0.4560   -0.6090   -4.4810 ca        1 LIG     -0.073000
     21 C15         0.7620   -0.4750   -5.8190 ca        1 LIG     -0.188000
     22 C16         1.8060    0.3490   -6.2150 ca        1 LIG      0.131100
     23 C17         2.5440    1.0430   -5.2660 ca        1 LIG     -0.188000
     24 C18         2.2390    0.9170   -3.9270 ca        1 LIG     -0.073000
     25 O2          2.1050    0.4790   -7.5340 oh        1 LIG     -0.496100
     26 C19        -2.2080   -0.2920   -0.0630 c3        1 LIG     -0.080400
     27 C20        -3.0670   -0.1880   -1.2960 ca        1 LIG     -0.076300
     28 C21        -3.4440   -1.3320   -1.9740 ca        1 LIG     -0.112500
     29 C22        -4.2330   -1.2370   -3.1060 ca        1 LIG     -0.131000
     30 C23        -4.6450    0.0020   -3.5580 ca        1 LIG     -0.127000
     31 C24        -4.2690    1.1450   -2.8790 ca        1 LIG     -0.131000
     32 C25        -3.4840    1.0500   -1.7450 ca        1 LIG     -0.112500
     33 O3          1.7880   -1.7120    3.0990 oh        1 LIG     -0.569800
     34 H           2.8590   -0.0800   -1.5060 h4        1 LIG      0.185000
     35 H1          1.5770    1.6200    2.8660 hc        1 LIG      0.073700
     36 H2          2.7800    0.6950    3.7320 hc        1 LIG      0.073700
     37 H3          2.1630   -0.5420    5.7240 ha        1 LIG      0.141000
     38 H4          0.6630   -0.7420    7.6050 ha        1 LIG      0.145500
     39 H5         -2.2290    1.4600    5.5210 ha        1 LIG      0.145500
     40 H6         -0.7150    1.6720    3.6540 ha        1 LIG      0.141000
     41 H7         -1.4690   -0.2260    8.5320 ho        1 LIG      0.421000
     42 H8         -0.3200   -1.2230   -4.1880 ha        1 LIG      0.143500
     43 H9          0.2140   -0.9880   -6.5270 ha        1 LIG      0.145000
     44 H10         3.3210    1.6540   -5.5630 ha        1 LIG      0.145000
     45 H11         2.7830    1.4390   -3.2220 ha        1 LIG      0.143500
     46 H12         1.6070    0.0110   -8.1750 ho        1 LIG      0.421000
     47 H13        -2.4310    0.5200    0.5970 hc        1 LIG      0.078200
     48 H14        -2.4060   -1.2190    0.4330 hc        1 LIG      0.078200
     49 H15        -3.1370   -2.2570   -1.6350 ha        1 LIG      0.132000
     50 H16        -4.5140   -2.0910   -3.6130 ha        1 LIG      0.131000
     51 H17        -5.2340    0.0740   -4.4030 ha        1 LIG      0.130000
     52 H18        -4.5740    2.0700   -3.2190 ha        1 LIG      0.131000
     53 H19        -3.2100    1.9040   -1.2340 ha        1 LIG      0.132000
     54 H20         1.6470   -2.4470    2.4820 ho        1 LIG      0.434000
@<TRIPOS>BOND
     1    1    2 1   
     2    1    9 2   
     3    2    3 1   
     4    2   10 1   
     5    2   33 1   
     6    3    4 1   
     7    3   18 2   
     8    4    5 ar  
     9    4    9 ar  
    10    5    6 ar  
    11    6    7 ar  
    12    6   19 1   
    13    7    8 ar  
    14    8    9 ar  
    15    8   26 1   
    16   10   11 1   
    17   11   12 ar  
    18   11   16 ar  
    19   12   13 ar  
    20   13   14 ar  
    21   14   15 ar  
    22   14   17 1   
    23   15   16 ar  
    24   19   20 ar  
    25   19   24 ar  
    26   20   21 ar  
    27   21   22 ar  
    28   22   23 ar  
    29   22   25 1   
    30   23   24 ar  
    31   26   27 1   
    32   27   28 ar  
    33   27   32 ar  
    34   28   29 ar  
    35   29   30 ar  
    36   30   31 ar  
    37   31   32 ar  
    38    5   34 1   
    39   10   35 1   
    40   10   36 1   
    41   12   37 1   
    42   13   38 1   
    43   15   39 1   
    44   16   40 1   
    45   17   41 1   
    46   20   42 1   
    47   21   43 1   
    48   23   44 1   
    49   24   45 1   
    50   25   46 1   
    51   26   47 1   
    52   26   48 1   
    53   28   49 1   
    54   29   50 1   
    55   30   51 1   
    56   31   52 1   
    57   32   53 1   
    58   33   54 1   
@<TRIPOS>SUBSTRUCTURE
     1 LIG         1 TEMP              0 ****  ****    0 ROOT
