@<TRIPOS>MOLECULE
AN3
   24    26     1     0     0
SMALL
bcc


@<TRIPOS>ATOM
      1 C           1.2040    0.7330    0.0000 ca        1 LIG     -0.034000
      2 C1          2.4420    1.4110    0.0000 ca        1 LIG     -0.118000
      3 C2          1.2040   -0.7330    0.0000 ca        1 LIG     -0.034000
      4 C3          3.5970    0.6980    0.0000 ca        1 LIG     -0.127000
      5 C4          2.4420   -1.4110    0.0000 ca        1 LIG     -0.118000
      6 C5          3.5970   -0.6970    0.0000 ca        1 LIG     -0.127000
      7 C6         -3.5970   -0.6980    0.0000 ca        1 LIG     -0.127000
      8 C7         -3.5970    0.6980    0.0000 ca        1 LIG     -0.127000
      9 C8         -2.4420   -1.4110    0.0000 ca        1 LIG     -0.118000
     10 C9         -2.4420    1.4110    0.0000 ca        1 LIG     -0.118000
     11 C10        -1.2040   -0.7330    0.0000 ca        1 LIG     -0.034000
     12 C11        -1.2040    0.7330    0.0000 ca        1 LIG     -0.034000
     13 C12         0.0000    1.4350    0.0010 ca        1 LIG     -0.107000
     14 C13         0.0000   -1.4350    0.0000 ca        1 LIG     -0.107000
     15 H           2.4690    2.4430    0.0000 ha        1 LIG      0.132000
     16 H1          4.4980    1.2010    0.0000 ha        1 LIG      0.132000
     17 H2          2.4690   -2.4430    0.0000 ha        1 LIG      0.132000
     18 H3          4.4980   -1.2000    0.0000 ha        1 LIG      0.132000
     19 H4         -4.4980   -1.2010    0.0000 ha        1 LIG      0.132000
     20 H5         -4.4980    1.2010    0.0000 ha        1 LIG      0.132000
     21 H6         -2.4690   -2.4430    0.0000 ha        1 LIG      0.132000
     22 H7         -2.4690    2.4430    0.0000 ha        1 LIG      0.132000
     23 H8          0.0000    2.4670    0.0030 ha        1 LIG      0.134000
     24 H9          0.0000   -2.4670    0.0000 ha        1 LIG      0.134000
@<TRIPOS>BOND
     1    1    2 ar  
     2    1    3 ar  
     3    1   13 ar  
     4    2    4 ar  
     5    3    5 ar  
     6    3   14 ar  
     7    4    6 ar  
     8    5    6 ar  
     9    7    8 ar  
    10    7    9 ar  
    11    8   10 ar  
    12    9   11 ar  
    13   10   12 ar  
    14   11   12 ar  
    15   11   14 ar  
    16   12   13 ar  
    17    2   15 1   
    18    4   16 1   
    19    5   17 1   
    20    6   18 1   
    21    7   19 1   
    22    8   20 1   
    23    9   21 1   
    24   10   22 1   
    25   13   23 1   
    26   14   24 1   
@<TRIPOS>SUBSTRUCTURE
     1 LIG         1 TEMP              0 ****  ****    0 ROOT
