@<TRIPOS>MOLECULE
OTZ
   22    23     1     0     0
SMALL
bcc


@<TRIPOS>ATOM
      1 N1          4.7670   -1.6520   -0.8950 n4        1 <1>     -0.838600
      2 C1          4.3130   -1.2240    0.4350 c3        1 <1>      0.122500
      3 C2          3.1580   -0.2670    0.2890 cc        1 <1>      0.335700
      4 N2          1.9020   -0.6020    0.2510 nd        1 <1>     -0.609000
      5 C3          1.1580    0.5260    0.1110 cd        1 <1>      0.301000
      6 C4         -0.3160    0.6000    0.0250 cd        1 <1>      0.238400
      7 N3         -1.1230   -0.4170    0.0720 nc        1 <1>     -0.556000
      8 C5         -2.4160   -0.1320   -0.0230 cc        1 <1>      0.305800
      9 C6         -3.4570   -1.1710    0.0140 c         1 <1>      0.839100
     10 O1         -4.6290   -0.8610   -0.0760 o         1 <1>     -0.788300
     11 C7         -2.7070    1.1810   -0.1540 cd        1 <1>     -0.185400
     12 S1         -1.2520    2.0800   -0.1480 ss        1 <1>     -0.150300
     13 C8          2.0220    1.5730    0.0640 cc        1 <1>      0.167300
     14 O2          3.2620    1.0640    0.1820 os        1 <1>     -0.350800
     15 O3         -3.1120   -2.4670    0.1470 o         1 <1>     -0.788300
     16 H1          5.5490   -2.3000   -0.7950 hn        1 <1>      0.472467
     17 H2          5.0670   -0.8370   -1.4310 hn        1 <1>      0.472467
     18 H3          4.0010   -2.1160   -1.3830 hn        1 <1>      0.472467
     19 H4          5.1170   -0.7370    0.9460 hx        1 <1>      0.122200
     20 H5          3.9980   -2.0790    0.9960 hx        1 <1>      0.122200
     21 H6         -3.6550    1.5780   -0.2430 h4        1 <1>      0.206000
     22 H7          1.7740    2.5690   -0.0420 h4        1 <1>      0.089100
@<TRIPOS>BOND
     1    1    2 1   
     2    2    3 1   
     3    3   14 ar  
     4    4    3 ar  
     5    4    5 ar  
     6    5   13 ar  
     7    6    5 1   
     8    7    6 ar  
     9    8    7 ar  
    10    9    8 1   
    11    9   15 1   
    12   10    9 1   
    13   11    8 ar  
    14   11   12 ar  
    15   12    6 ar  
    16   14   13 ar  
    17    1   16 1   
    18    1   17 1   
    19    1   18 1   
    20    2   19 1   
    21    2   20 1   
    22   11   21 1   
    23   13   22 1   
@<TRIPOS>SUBSTRUCTURE
     1 <1>         1 TEMP              0 ****  ****    0 ROOT
