@<TRIPOS>MOLECULE
J1V
   50    52     1     0     0
SMALL
bcc


@<TRIPOS>ATOM
      1 C           6.3500   -0.9450    0.4670 c3        1 LIG     -0.071400
      2 C1          7.2170   -2.1080   -0.0180 c3        1 LIG     -0.077400
      3 C2          6.5740   -3.4320    0.4010 c3        1 LIG     -0.079400
      4 C3          5.1800   -3.5410   -0.2200 c3        1 LIG     -0.077400
      5 C4          4.3130   -2.3770    0.2640 c3        1 LIG     -0.071400
      6 C5          4.9560   -1.0540   -0.1550 c3        1 LIG     -0.125700
      7 C6          4.1020    0.0930    0.3220 c         1 LIG      0.669100
      8 O           4.5630    0.9160    1.0840 o         1 LIG     -0.607100
      9 N           2.8260    0.2030   -0.0970 n         1 LIG     -0.566900
     10 C7          1.9960    1.3180    0.3660 c3        1 LIG      0.085000
     11 C8          2.2360    2.5210   -0.5080 c         1 LIG      0.579100
     12 O1          3.0230    2.4540   -1.4290 o         1 LIG     -0.565100
     13 N1          1.5770    3.6710   -0.2680 n         1 LIG     -0.343400
     14 O2          1.8020    4.8020   -1.0900 oh        1 LIG     -0.434100
     15 C9          0.5430    0.9260    0.2940 ca        1 LIG     -0.116300
     16 C10        -0.3230    1.3000    1.3050 ca        1 LIG     -0.111000
     17 C11        -1.6550    0.9440    1.2440 ca        1 LIG     -0.114500
     18 C12         0.0790    0.1980   -0.7870 ca        1 LIG     -0.111000
     19 C13        -1.2520   -0.1640   -0.8580 ca        1 LIG     -0.114500
     20 C14        -2.1270    0.2060    0.1610 cp        1 LIG     -0.038000
     21 C15        -3.5580   -0.1810    0.0900 cp        1 LIG      0.001000
     22 C16        -4.4350    0.1980    1.1040 ca        1 LIG     -0.151000
     23 C17        -5.7670   -0.1630    1.0350 ca        1 LIG      0.120400
     24 F          -6.6180    0.2040    2.0170 f         1 LIG     -0.118400
     25 C18        -6.2310   -0.9030   -0.0430 ca        1 LIG      0.058900
     26 F1         -7.5340   -1.2540   -0.1080 f         1 LIG     -0.108900
     27 C19        -5.3610   -1.2820   -1.0540 ca        1 LIG      0.120400
     28 F2         -5.8170   -2.0020   -2.1020 f         1 LIG     -0.118400
     29 C20        -4.0290   -0.9200   -0.9940 ca        1 LIG     -0.151000
     30 H           6.2690   -0.9810    1.5330 hc        1 LIG      0.053700
     31 H1          6.8000   -0.0190    0.1750 hc        1 LIG      0.053700
     32 H2          8.1920   -2.0320    0.4160 hc        1 LIG      0.042700
     33 H3          7.2980   -2.0720   -1.0840 hc        1 LIG      0.042700
     34 H4          6.4930   -3.4670    1.4670 hc        1 LIG      0.043200
     35 H5          7.1800   -4.2460    0.0620 hc        1 LIG      0.043200
     36 H6          4.7300   -4.4670    0.0730 hc        1 LIG      0.042700
     37 H7          5.2610   -3.5060   -1.2860 hc        1 LIG      0.042700
     38 H8          4.2320   -2.4120    1.3300 hc        1 LIG      0.053700
     39 H9          3.3380   -2.4530   -0.1710 hc        1 LIG      0.053700
     40 H10         5.0370   -1.0190   -1.2210 hc        1 LIG      0.067700
     41 H11         2.4510   -0.4660   -0.7140 hn        1 LIG      0.326500
     42 H12         2.2520    1.5560    1.3770 h1        1 LIG      0.116700
     43 H13         0.9390    3.7250    0.4790 hn        1 LIG      0.304500
     44 H14         2.4540    4.5810   -1.7730 ho        1 LIG      0.436000
     45 H15         0.0280    1.8470    2.1070 ha        1 LIG      0.150500
     46 H16        -2.3000    1.2240    1.9990 ha        1 LIG      0.143000
     47 H17         0.7280   -0.0750   -1.5410 ha        1 LIG      0.150500
     48 H18        -1.5980   -0.7080   -1.6640 ha        1 LIG      0.143000
     49 H19        -4.0900    0.7480    1.9060 ha        1 LIG      0.162500
     50 H20        -3.3840   -1.1960   -1.7510 ha        1 LIG      0.162500
@<TRIPOS>BOND
     1    1    6 1   
     2    2    1 1   
     3    3    2 1   
     4    3    4 1   
     5    4    5 1   
     6    5    6 1   
     7    6    7 1   
     8    7    9 1   
     9    7    8 2   
    10    9   10 1   
    11   10   15 1   
    12   11   10 1   
    13   12   11 2   
    14   13   11 1   
    15   14   13 1   
    16   15   16 ar  
    17   15   18 ar  
    18   16   17 ar  
    19   17   20 ar  
    20   18   19 ar  
    21   19   20 ar  
    22   20   21 1   
    23   21   29 ar  
    24   21   22 ar  
    25   22   23 ar  
    26   23   25 ar  
    27   23   24 1   
    28   25   26 1   
    29   27   28 1   
    30   27   25 ar  
    31   29   27 ar  
    32    1   30 1   
    33    1   31 1   
    34    2   32 1   
    35    2   33 1   
    36    3   34 1   
    37    3   35 1   
    38    4   36 1   
    39    4   37 1   
    40    5   38 1   
    41    5   39 1   
    42    6   40 1   
    43    9   41 1   
    44   10   42 1   
    45   13   43 1   
    46   14   44 1   
    47   16   45 1   
    48   17   46 1   
    49   18   47 1   
    50   19   48 1   
    51   22   49 1   
    52   29   50 1   
@<TRIPOS>SUBSTRUCTURE
     1 LIG         1 TEMP              0 ****  ****    0 ROOT
