@<TRIPOS>MOLECULE
3RX
   64    66     1     0     0
SMALL
bcc


@<TRIPOS>ATOM
      1 C          -6.0020    2.6710    0.5080 c3        1 LIG     -0.072900
      2 C1         -8.5760    2.5870    0.0790 c3        1 LIG     -0.072900
      3 C2         -3.9860   -2.6210   -1.4080 c3        1 LIG     -0.110900
      4 C3         -7.0920    0.7430   -0.5190 c2        1 LIG     -0.229200
      5 C4         -3.4010   -1.6740    0.7650 c2        1 LIG     -0.358200
      6 C5         -5.7230    0.1360   -0.6920 c3        1 LIG     -0.021200
      7 C6         -1.9970   -2.1750    0.5410 c3        1 LIG      0.194000
      8 C7          0.3360   -1.5250    0.5300 c3        1 LIG      0.071800
      9 C8          1.2950   -0.3530    0.7470 c3        1 LIG      0.074800
     10 C9         -5.6770   -1.2250    0.0070 c3        1 LIG     -0.085200
     11 C10         6.6250    0.7580   -1.0760 c3        1 LIG     -0.078400
     12 C11         4.7510    2.2440   -0.3520 c3        1 LIG     -0.080900
     13 C12         4.2690    0.1800   -1.6760 c3        1 LIG     -0.080900
     14 C13         5.9830    0.8740    1.3360 c3        1 LIG     -0.080900
     15 C14         5.5010   -1.1900    0.0120 c3        1 LIG     -0.080900
     16 N          -1.0460   -1.0730    0.7410 n4        1 LIG     -0.776000
     17 N1          2.6760   -0.8060    0.5360 n4        1 LIG     -0.765000
     18 C15        -7.2170    1.9400   -0.0030 c2        1 LIG     -0.064400
     19 C16        -4.3090   -1.8320   -0.1650 c2        1 LIG      0.071600
     20 C17         6.1170    1.6740    0.0390 c3        1 LIG     -0.070700
     21 C18         5.6350   -0.3890   -1.2850 c3        1 LIG     -0.070700
     22 C19         3.7610    1.0970   -0.5610 c3        1 LIG     -0.078700
     23 C20         4.9920   -0.2740    1.1270 c3        1 LIG     -0.078700
     24 C21         3.6270    0.2960    0.7360 c3        1 LIG      0.130500
     25 H          -6.2950    3.6260    0.8900 hc        1 LIG      0.052200
     26 H1         -5.3040    2.8060   -0.2920 hc        1 LIG      0.052200
     27 H2         -5.5440    2.1000    1.2880 hc        1 LIG      0.052200
     28 H3         -8.4840    3.5550    0.5260 hc        1 LIG      0.052200
     29 H4         -9.2250    1.9800    0.6750 hc        1 LIG      0.052200
     30 H5         -8.9840    2.6860   -0.9050 hc        1 LIG      0.052200
     31 H6         -2.9770   -2.9720   -1.3550 hc        1 LIG      0.071700
     32 H7         -4.1010   -1.9950   -2.2680 hc        1 LIG      0.071700
     33 H8         -4.6510   -3.4560   -1.4830 hc        1 LIG      0.071700
     34 H9         -7.9310    0.2150   -0.8070 ha        1 LIG      0.135000
     35 H10        -3.6470   -1.2060    1.6520 ha        1 LIG      0.166000
     36 H11        -4.9890    0.7840   -0.2610 hc        1 LIG      0.039700
     37 H12        -5.5180    0.0090   -1.7340 hc        1 LIG      0.039700
     38 H13        -1.9060   -2.5470   -0.4580 hx        1 LIG      0.106700
     39 H14        -1.7840   -2.9610    1.2350 hx        1 LIG      0.106700
     40 H15         0.5650   -2.3070    1.2240 hx        1 LIG      0.122700
     41 H16         0.4420   -1.8920   -0.4690 hx        1 LIG      0.122700
     42 H17         1.1890    0.0150    1.7460 hx        1 LIG      0.124700
     43 H18         1.0660    0.4290    0.0530 hx        1 LIG      0.124700
     44 H19        -6.4110   -1.8730   -0.4250 hc        1 LIG      0.086200
     45 H20        -5.8820   -1.0980    1.0490 hc        1 LIG      0.086200
     46 H21         7.5800    0.3600   -0.8030 hc        1 LIG      0.075200
     47 H22         6.7180    1.3180   -1.9830 hc        1 LIG      0.075200
     48 H23         4.8450    2.8040   -1.2590 hc        1 LIG      0.066075
     49 H24         4.3950    2.8850    0.4280 hc        1 LIG      0.066075
     50 H25         4.3620    0.7390   -2.5830 hc        1 LIG      0.066075
     51 H26         3.5760   -0.6230   -1.8210 hc        1 LIG      0.066075
     52 H27         5.6270    1.5150    2.1150 hc        1 LIG      0.066075
     53 H28         6.9380    0.4760    1.6100 hc        1 LIG      0.066075
     54 H29         6.4560   -1.5880    0.2850 hc        1 LIG      0.066075
     55 H30         4.8090   -1.9920   -0.1340 hc        1 LIG      0.066075
     56 H31        -1.1400   -0.7200    1.6940 hn        1 LIG      0.456800
     57 H32        -1.2540   -0.3380    0.0650 hn        1 LIG      0.456800
     58 H33         2.7700   -1.1590   -0.4160 hn        1 LIG      0.460300
     59 H34         2.8840   -1.5420    1.2110 hn        1 LIG      0.460300
     60 H35         6.8100    2.4760    0.1850 hc        1 LIG      0.096200
     61 H36         5.9910   -1.0290   -2.0650 hc        1 LIG      0.096200
     62 H37         2.8070    1.4960   -0.8350 hc        1 LIG      0.058700
     63 H38         4.8980   -0.8340    2.0340 hc        1 LIG      0.058700
     64 H39         3.2710    0.9370    1.5150 hx        1 LIG      0.103700
@<TRIPOS>BOND
     1    2   18 1   
     2    5    7 1   
     3    5   19 2   
     4    6    4 1   
     5    6   10 1   
     6    7   16 1   
     7    8    9 1   
     8    8   16 1   
     9   11   20 1   
    10   13   22 1   
    11   14   20 1   
    12   15   21 1   
    13   15   23 1   
    14   17    9 1   
    15   17   24 1   
    16   18    1 1   
    17   18    4 2   
    18   19    3 1   
    19   19   10 1   
    20   20   12 1   
    21   21   11 1   
    22   21   13 1   
    23   22   12 1   
    24   23   14 1   
    25   23   24 1   
    26   24   22 1   
    27    1   25 1   
    28    1   26 1   
    29    1   27 1   
    30    2   28 1   
    31    2   29 1   
    32    2   30 1   
    33    3   31 1   
    34    3   32 1   
    35    3   33 1   
    36    4   34 1   
    37    5   35 1   
    38    6   36 1   
    39    6   37 1   
    40    7   38 1   
    41    7   39 1   
    42    8   40 1   
    43    8   41 1   
    44    9   42 1   
    45    9   43 1   
    46   10   44 1   
    47   10   45 1   
    48   11   46 1   
    49   11   47 1   
    50   12   48 1   
    51   12   49 1   
    52   13   50 1   
    53   13   51 1   
    54   14   52 1   
    55   14   53 1   
    56   15   54 1   
    57   15   55 1   
    58   16   56 1   
    59   16   57 1   
    60   17   58 1   
    61   17   59 1   
    62   20   60 1   
    63   21   61 1   
    64   22   62 1   
    65   23   63 1   
    66   24   64 1   
@<TRIPOS>SUBSTRUCTURE
     1 LIG         1 TEMP              0 ****  ****    0 ROOT
