@<TRIPOS>MOLECULE
LHV
   17    16     1     0     0
SMALL
bcc


@<TRIPOS>ATOM
      1 C          -1.2530   -0.0550   -0.0590 c         1 LIG      0.893600
      2 C1          1.1210   -1.7420    0.1200 c3        1 LIG     -0.085600
      3 C2          1.1790   -0.2360    0.3870 c3        1 LIG     -0.075700
      4 C3          2.5590    0.2980   -0.0030 c3        1 LIG     -0.085600
      5 C4          0.1060    0.4710   -0.4430 c3        1 LIG      0.022100
      6 O           0.1610    1.8770   -0.1950 oh        1 LIG     -0.646800
      7 O1         -2.0600    0.6790    0.4610 o         1 LIG     -0.838800
      8 O2         -1.5700   -1.3370   -0.3000 o         1 LIG     -0.838800
      9 H           0.1560   -2.1160    0.3930 hc        1 LIG      0.024367
     10 H1          1.8720   -2.2360    0.7000 hc        1 LIG      0.024367
     11 H2          1.2940   -1.9270   -0.9190 hc        1 LIG      0.024367
     12 H3          1.0050   -0.0510    1.4270 hc        1 LIG      0.045700
     13 H4          2.7320    0.1130   -1.0420 hc        1 LIG      0.024367
     14 H5          3.3100   -0.1960    0.5770 hc        1 LIG      0.024367
     15 H6          2.6000    1.3510    0.1830 hc        1 LIG      0.024367
     16 H7          0.2790    0.2860   -1.4820 h1        1 LIG      0.040700
     17 H8          0.0040    2.0460    0.7470 ho        1 LIG      0.422000
@<TRIPOS>BOND
     1    1    8 1   
     2    3    5 1   
     3    3    2 1   
     4    4    3 1   
     5    5    1 1   
     6    6    5 1   
     7    7    1 1   
     8    2    9 1   
     9    2   10 1   
    10    2   11 1   
    11    3   12 1   
    12    4   13 1   
    13    4   14 1   
    14    4   15 1   
    15    5   16 1   
    16    6   17 1   
@<TRIPOS>SUBSTRUCTURE
     1 LIG         1 TEMP              0 ****  ****    0 ROOT
