@<TRIPOS>MOLECULE
DYK
   59    63     1     0     0
SMALL
bcc


@<TRIPOS>ATOM
      1 C           8.5650    1.8280   -1.0210 c3        1 LIG      0.085100
      2 N           7.8070    0.6290   -0.6380 n4        1 LIG     -0.683400
      3 O           4.7390    0.1820    0.9040 os        1 LIG     -0.357900
      4 C1          7.6110    0.5710    0.8160 c3        1 LIG      0.115300
      5 N1         -0.7020   -0.5870    0.2440 nh        1 LIG     -0.690300
      6 O1          1.1170   -2.5060   -0.6060 os        1 LIG     -0.329900
      7 C2          6.9490   -0.7560    1.1910 c3        1 LIG     -0.121900
      8 N2         -1.0070    1.7090   -0.0670 nb        1 LIG     -0.752000
      9 C3          5.6030   -0.8710    0.4710 c3        1 LIG      0.131100
     10 N3         -2.8480    0.3110    0.0390 nb        1 LIG     -0.739000
     11 C4          5.8290   -0.7600   -1.0390 c3        1 LIG     -0.121900
     12 N4         -7.3310    1.5010   -0.3020 na        1 LIG     -0.163400
     13 C5          6.5230    0.5680   -1.3490 c3        1 LIG      0.115300
     14 N5         -7.7070   -2.1390    0.1550 nb        1 LIG     -0.649000
     15 C6          3.4030   -0.0090    0.7410 ca        1 LIG      0.073100
     16 C7          2.5070    0.9590    1.1700 ca        1 LIG     -0.160000
     17 C8          1.1480    0.7670    1.0060 ca        1 LIG     -0.073000
     18 C9          0.6770   -0.3930    0.4100 ca        1 LIG      0.131600
     19 C10         1.5760   -1.3660   -0.0220 ca        1 LIG      0.111100
     20 C11         2.9370   -1.1690    0.1400 ca        1 LIG     -0.208000
     21 C12         2.0960   -3.4590   -1.0250 c3        1 LIG      0.115700
     22 C13        -1.5380    0.5020    0.0680 ca        1 LIG      0.859900
     23 C14        -1.7730    2.7760   -0.2370 ca        1 LIG      0.461200
     24 C15        -3.1450    2.6250   -0.2730 ca        1 LIG     -0.409600
     25 C16        -3.6790    1.3390   -0.1290 ca        1 LIG      0.591100
     26 C17        -5.1420    1.1250   -0.1620 cc        1 LIG     -0.247000
     27 C18        -6.1000    2.0770   -0.3250 cd        1 LIG     -0.047100
     28 C19        -7.2180    0.1400   -0.1210 ca        1 LIG     -0.188500
     29 C20        -5.8440   -0.1570   -0.0250 ca        1 LIG     -0.023800
     30 C21        -5.4560   -1.4830    0.1640 ca        1 LIG     -0.186300
     31 C22        -6.4240   -2.4460    0.2480 ca        1 LIG      0.364200
     32 C23        -8.1290   -0.9040   -0.0230 ca        1 LIG      0.403200
     33 H           9.4940    1.8480   -0.4900 hx        1 LIG      0.104033
     34 H1          7.9970    2.7020   -0.7780 hx        1 LIG      0.104033
     35 H2          8.7570    1.8080   -2.0740 hx        1 LIG      0.104033
     36 H3          8.3530   -0.1880   -0.9110 hn        1 LIG      0.442800
     37 H4          6.9840    1.3810    1.1240 hx        1 LIG      0.108950
     38 H5          8.5590    0.6460    1.3060 hx        1 LIG      0.108950
     39 H6         -1.0750   -1.4980    0.2530 hn        1 LIG      0.449800
     40 H7          6.7930   -0.7910    2.2490 hc        1 LIG      0.094200
     41 H8          7.5820   -1.5680    0.8990 hc        1 LIG      0.094200
     42 H9          5.1520   -1.8150    0.6980 h1        1 LIG      0.092700
     43 H10         4.8870   -0.7980   -1.5450 hc        1 LIG      0.094200
     44 H11         6.4420   -1.5710   -1.3710 hc        1 LIG      0.094200
     45 H12        -8.1820    1.9870   -0.4010 hn        1 LIG      0.310700
     46 H13         6.6950    0.6430   -2.4020 hx        1 LIG      0.108950
     47 H14         5.9010    1.3780   -1.0300 hx        1 LIG      0.108950
     48 H15         2.8560    1.8240    1.6120 ha        1 LIG      0.133000
     49 H16         0.4830    1.4880    1.3270 ha        1 LIG      0.172000
     50 H17         3.6050   -1.8850   -0.1860 ha        1 LIG      0.148000
     51 H18         1.6070   -4.3030   -1.4650 h1        1 LIG      0.052367
     52 H19         2.6670   -3.7790   -0.1790 h1        1 LIG      0.052367
     53 H20         2.7470   -3.0090   -1.7450 h1        1 LIG      0.052367
     54 H21        -1.3490    3.7110   -0.3420 h4        1 LIG      0.027100
     55 H22        -3.7630    3.4420   -0.4030 ha        1 LIG      0.153000
     56 H23        -5.9190    3.0860   -0.4480 h4        1 LIG      0.174000
     57 H24        -4.4580   -1.7330    0.2390 ha        1 LIG      0.161000
     58 H25        -6.1480   -3.4310    0.3870 h4        1 LIG      0.024100
     59 H26        -9.1410   -0.7110   -0.0900 h4        1 LIG      0.026100
@<TRIPOS>BOND
     1    1    2 1   
     2    2    4 1   
     3    2   13 1   
     4    3    9 1   
     5    3   15 1   
     6    4    7 1   
     7    5   18 1   
     8    5   22 1   
     9    6   19 1   
    10    6   21 1   
    11    7    9 1   
    12    8   22 ar  
    13    8   23 ar  
    14    9   11 1   
    15   10   22 ar  
    16   10   25 ar  
    17   11   13 1   
    18   12   27 1   
    19   12   28 1   
    20   14   31 ar  
    21   14   32 ar  
    22   15   16 ar  
    23   15   20 ar  
    24   16   17 ar  
    25   17   18 ar  
    26   18   19 ar  
    27   19   20 ar  
    28   23   24 ar  
    29   24   25 ar  
    30   25   26 1   
    31   26   27 2   
    32   26   29 1   
    33   28   29 ar  
    34   28   32 ar  
    35   29   30 ar  
    36   30   31 ar  
    37    1   33 1   
    38    1   34 1   
    39    1   35 1   
    40    2   36 1   
    41    4   37 1   
    42    4   38 1   
    43    5   39 1   
    44    7   40 1   
    45    7   41 1   
    46    9   42 1   
    47   11   43 1   
    48   11   44 1   
    49   12   45 1   
    50   13   46 1   
    51   13   47 1   
    52   16   48 1   
    53   17   49 1   
    54   20   50 1   
    55   21   51 1   
    56   21   52 1   
    57   21   53 1   
    58   23   54 1   
    59   24   55 1   
    60   27   56 1   
    61   30   57 1   
    62   31   58 1   
    63   32   59 1   
@<TRIPOS>SUBSTRUCTURE
     1 LIG         1 TEMP              0 ****  ****    0 ROOT
