@<TRIPOS>MOLECULE
3C4
   18    18     1     0     0
SMALL
bcc


@<TRIPOS>ATOM
      1 O           2.5210   -0.2000    1.2980 o         1 LIG     -0.839300
      2 C           3.0270   -0.2590    0.2020 c         1 LIG      0.917600
      3 O1          4.3250   -0.5790    0.0780 o         1 LIG     -0.839300
      4 C1          2.2010    0.0280   -1.0260 c3        1 LIG     -0.174100
      5 C2          0.7900    0.3580   -0.6150 ca        1 LIG     -0.035300
      6 C3          0.4360    1.6690   -0.3540 ca        1 LIG     -0.084000
      7 C4         -0.8570    1.9750    0.0230 ca        1 LIG     -0.212000
      8 C5         -1.8020    0.9670    0.1390 ca        1 LIG      0.089100
      9 O2         -3.0760    1.2660    0.5090 oh        1 LIG     -0.505100
     10 Cl         -2.6250   -1.6150    0.0190 cl        1 LIG     -0.125400
     11 C6         -1.4460   -0.3490   -0.1250 ca        1 LIG     -0.013600
     12 C7         -0.1510   -0.6490   -0.5070 ca        1 LIG     -0.123000
     13 H           2.1960   -0.8330   -1.6610 hc        1 LIG      0.040200
     14 H1          2.6230    0.8580   -1.5540 hc        1 LIG      0.040200
     15 H2          1.1390    2.4200   -0.4410 ha        1 LIG      0.199000
     16 H3         -1.1200    2.9540    0.2180 ha        1 LIG      0.120000
     17 H4         -3.3160    2.1540    0.6870 ho        1 LIG      0.407000
     18 H5          0.1130   -1.6250   -0.7120 ha        1 LIG      0.138000
@<TRIPOS>BOND
     1    1    2 1   
     2    2    3 1   
     3    2    4 1   
     4    4    5 1   
     5    5    6 ar  
     6    5   12 ar  
     7    6    7 ar  
     8    7    8 ar  
     9    8    9 1   
    10    8   11 ar  
    11   10   11 1   
    12   11   12 ar  
    13    4   13 1   
    14    4   14 1   
    15    6   15 1   
    16    7   16 1   
    17    9   17 1   
    18   12   18 1   
@<TRIPOS>SUBSTRUCTURE
     1 LIG         1 TEMP              0 ****  ****    0 ROOT
