@<TRIPOS>MOLECULE
4JC
   23    23     1     0     0
SMALL
bcc


@<TRIPOS>ATOM
      1 O           2.5040   -1.2490    0.7620 O.3       1 LIG     -0.659800
      2 S           2.1660    0.0010    0.1770 S.y       1 LIG      1.528200
      3 O1          2.5030    1.2510    0.7640 O.3       1 LIG     -0.659800
      4 N           2.8320    0.0030   -1.3390 N.3       1 LIG     -1.026700
      5 C           0.4160    0.0000   -0.0230 C.a       1 LIG     -0.392500
      6 C1         -0.2710   -1.1970   -0.1020 C.a       1 LIG     -0.014500
      7 C2         -1.6440   -1.1980   -0.2590 C.a       1 LIG     -0.158000
      8 C3         -0.2730    1.1970   -0.0940 C.a       1 LIG     -0.014500
      9 C4         -1.6460    1.1960   -0.2510 C.a       1 LIG     -0.158000
     10 C5         -2.3310   -0.0010   -0.3370 C.a       1 LIG     -0.010300
     11 C6         -3.8280   -0.0020   -0.5080 C.3       1 LIG     -0.050100
     12 C7         -4.4990   -0.0030    0.8670 C.3       1 LIG     -0.090100
     13 H           3.8490    0.0040   -1.2640 H         1 LIG      0.446800
     14 H1          2.5280    0.8360   -1.8430 H         1 LIG      0.446800
     15 H2          0.2420   -2.0910   -0.0440 H         1 LIG      0.152000
     16 H3         -2.1560   -2.0920   -0.3180 H         1 LIG      0.141000
     17 H4          0.2380    2.0910   -0.0300 H         1 LIG      0.152000
     18 H5         -2.1600    2.0890   -0.3040 H         1 LIG      0.141000
     19 H6         -4.1240   -0.8760   -1.0500 H         1 LIG      0.053200
     20 H7         -4.1250    0.8720   -1.0490 H         1 LIG      0.053200
     21 H8         -4.2020   -0.8770    1.4080 H         1 LIG      0.040367
     22 H9         -5.5620   -0.0040    0.7450 H         1 LIG      0.040367
     23 H10        -4.2030    0.8710    1.4090 H         1 LIG      0.040367
@<TRIPOS>BOND
     1    2    1 2   
     2    2    4 1   
     3    3    2 2   
     4    5    2 1   
     5    6    5 ar  
     6    7    6 ar  
     7    8    5 ar  
     8    9    8 ar  
     9   10    7 ar  
    10   10    9 ar  
    11   11   10 1   
    12   12   11 1   
    13    4   13 1   
    14    4   14 1   
    15    6   15 1   
    16    7   16 1   
    17    8   17 1   
    18    9   18 1   
    19   11   19 1   
    20   11   20 1   
    21   12   21 1   
    22   12   22 1   
    23   12   23 1   
@<TRIPOS>SUBSTRUCTURE
     1 LIG         1 TEMP              0 ****  ****    0 ROOT
