@<TRIPOS>MOLECULE
SN0
   28    27     1     0     0
SMALL
bcc


@<TRIPOS>ATOM
      1 CA          1.9740   -0.2220   -0.2470 c3        1 LIG     -0.024300
      2 C           2.2960   -1.6180    0.2200 c         1 LIG      0.906600
      3 O           3.4210   -2.2220   -0.1940 o         1 LIG     -0.848800
      4 OXT         1.5420   -2.1930    0.9680 o         1 LIG     -0.848800
      5 C1          3.0880    0.7320    0.1900 c3        1 LIG     -0.071400
      6 C2          2.8250    2.1230   -0.3900 c3        1 LIG     -0.088400
      7 C3          3.9390    3.0770    0.0460 c3        1 LIG     -0.082100
      8 N           0.7040    0.2090    0.3410 n         1 LIG     -0.547900
      9 C4         -0.4600   -0.1190   -0.2540 c         1 LIG      0.642100
     10 O1         -0.4560   -0.7720   -1.2760 o         1 LIG     -0.674100
     11 C5         -1.7670    0.3240    0.3520 c3        1 LIG     -0.132400
     12 C6         -2.9250   -0.1770   -0.5130 c3        1 LIG     -0.178400
     13 C7         -4.2320    0.2670    0.0920 c         1 LIG      0.903600
     14 O2         -5.3920   -0.0600   -0.5000 o         1 LIG     -0.866800
     15 O3         -4.2370    0.9170    1.1110 o         1 LIG     -0.866800
     16 HA          1.8940   -0.2130   -1.3140 h1        1 LIG      0.055700
     17 H           4.0290    0.3690   -0.1670 hc        1 LIG      0.037200
     18 H1          3.1100    0.7890    1.2580 hc        1 LIG      0.037200
     19 H2          1.8840    2.4860   -0.0330 hc        1 LIG      0.051200
     20 H3          2.8030    2.0650   -1.4580 hc        1 LIG      0.051200
     21 H4          3.9610    3.1350    1.1140 hc        1 LIG      0.011033
     22 H5          3.7550    4.0500   -0.3600 hc        1 LIG      0.011033
     23 H6          4.8800    2.7140   -0.3110 hc        1 LIG      0.011033
     24 H7          0.7000    0.7380    1.1710 hn        1 LIG      0.320500
     25 H8         -1.7940    1.3930    0.4000 hc        1 LIG      0.061700
     26 H9         -1.8580   -0.0800    1.3390 hc        1 LIG      0.061700
     27 H10        -2.8990   -1.2460   -0.5600 hc        1 LIG      0.034200
     28 H11        -2.8330    0.2260   -1.5000 hc        1 LIG      0.034200
@<TRIPOS>BOND
     1    1    2 1   
     2    1    5 1   
     3    1    8 1   
     4    2    3 1   
     5    2    4 1   
     6    5    6 1   
     7    6    7 1   
     8    8    9 1   
     9    9   10 2   
    10    9   11 1   
    11   11   12 1   
    12   12   13 1   
    13   13   14 1   
    14   13   15 1   
    15    1   16 1   
    16    5   17 1   
    17    5   18 1   
    18    6   19 1   
    19    6   20 1   
    20    7   21 1   
    21    7   22 1   
    22    7   23 1   
    23    8   24 1   
    24   11   25 1   
    25   11   26 1   
    26   12   27 1   
    27   12   28 1   
@<TRIPOS>SUBSTRUCTURE
     1 LIG         1 TEMP              0 ****  ****    0 ROOT
