@<TRIPOS>MOLECULE
5UF
   32    31     1     0     0
SMALL
bcc


@<TRIPOS>ATOM
      1 C          -4.3400    0.1250    0.2070 C.        1 LIG      0.908600
      2 C1         -3.0670    0.8400   -0.1630 C.3       1 LIG     -0.233400
      3 C2         -1.8760   -0.0970    0.0470 C.3       1 LIG      0.172100
      4 C3         -0.5750    0.6660   -0.2090 C.3       1 LIG     -0.079400
      5 C4          0.6180   -0.2330    0.1220 C.3       1 LIG     -0.077400
      6 C5          1.9190    0.5300   -0.1340 C.3       1 LIG     -0.077400
      7 O          -1.9690   -1.1970   -0.8600 O.h       1 LIG     -0.658800
      8 O1         -5.5200    0.7570    0.1020 O.3       1 LIG     -0.849300
      9 O2         -4.3000   -1.0190    0.5950 O.3       1 LIG     -0.849300
     10 C6          3.1120   -0.3690    0.1960 C.3       1 LIG     -0.079400
     11 C7          4.4130    0.3940   -0.0600 C.3       1 LIG     -0.078400
     12 C8          5.6050   -0.5060    0.2710 C.3       1 LIG     -0.080400
     13 C9          6.9060    0.2580    0.0150 C.3       1 LIG     -0.091100
     14 H          -2.9520    1.7060    0.4540 H         1 LIG      0.033700
     15 H1         -3.1100    1.1370   -1.1900 H         1 LIG      0.033700
     16 H2         -1.8830   -0.4620    1.0530 H         1 LIG      0.024700
     17 H3         -0.5460    1.5390    0.4090 H         1 LIG      0.033700
     18 H4         -0.5280    0.9560   -1.2380 H         1 LIG      0.033700
     19 H5          0.5890   -1.1060   -0.4960 H         1 LIG      0.045200
     20 H6          0.5710   -0.5230    1.1510 H         1 LIG      0.045200
     21 H7          1.9480    1.4030    0.4850 H         1 LIG      0.032200
     22 H8          1.9650    0.8200   -1.1630 H         1 LIG      0.032200
     23 H9         -1.9620   -0.8660   -1.7720 H         1 LIG      0.454000
     24 H10         3.0830   -1.2420   -0.4230 H         1 LIG      0.038200
     25 H11         3.0660   -0.6590    1.2250 H         1 LIG      0.038200
     26 H12         4.4420    1.2670    0.5580 H         1 LIG      0.036200
     27 H13         4.4600    0.6840   -1.0890 H         1 LIG      0.036200
     28 H14         5.5760   -1.3790   -0.3470 H         1 LIG      0.037200
     29 H15         5.5580   -0.7970    1.3000 H         1 LIG      0.037200
     30 H16         6.9520    0.5490   -1.0140 H         1 LIG      0.028033
     31 H17         7.7400   -0.3710    0.2460 H         1 LIG      0.028033
     32 H18         6.9350    1.1300    0.6340 H         1 LIG      0.028033
@<TRIPOS>BOND
     1    1    8 1   
     2    1    2 1   
     3    2    3 1   
     4    3    4 1   
     5    3    7 1   
     6    4    5 1   
     7    5    6 1   
     8    6   10 1   
     9    9    1 1   
    10   10   11 1   
    11   11   12 1   
    12   12   13 1   
    13    2   14 1   
    14    2   15 1   
    15    3   16 1   
    16    4   17 1   
    17    4   18 1   
    18    5   19 1   
    19    5   20 1   
    20    6   21 1   
    21    6   22 1   
    22    7   23 1   
    23   10   24 1   
    24   10   25 1   
    25   11   26 1   
    26   11   27 1   
    27   12   28 1   
    28   12   29 1   
    29   13   30 1   
    30   13   31 1   
    31   13   32 1   
@<TRIPOS>SUBSTRUCTURE
     1 LIG         1 TEMP              0 ****  ****    0 ROOT
