@<TRIPOS>MOLECULE
RWY
   32    33     1     0     0
SMALL
bcc


@<TRIPOS>ATOM
      1 N          -7.9000   -0.5310   -0.6890 n1        1 LIG     -0.319800
      2 C          -6.9160   -0.6320   -0.1300 c1        1 LIG      0.176900
      3 C1          5.9050   -1.8190   -0.5500 ca        1 LIG     -0.153000
      4 C2          6.3830   -0.7650    0.2060 ca        1 LIG     -0.105500
      5 C3          4.5650   -1.8800   -0.8860 ca        1 LIG     -0.105500
      6 C4          5.5220    0.2280    0.6330 ca        1 LIG     -0.162500
      7 C5          3.7010   -0.8870   -0.4670 ca        1 LIG     -0.162500
      8 C6         -0.2080    0.2920    0.8240 ca        1 LIG     -0.160000
      9 C7          0.2500    1.5280   -1.1850 ca        1 LIG     -0.160000
     10 C8          1.1240    0.3800    1.1810 ca        1 LIG     -0.117000
     11 C9          1.5790    1.6250   -0.8220 ca        1 LIG     -0.117000
     12 C10        -2.8260    0.0830    0.1850 c3        1 LIG      0.131400
     13 C11        -4.2490    0.0890   -0.3750 c3        1 LIG     -0.070300
     14 O          -1.9580    0.7790   -0.7120 os        1 LIG     -0.331900
     15 O1          3.3280    1.1430    0.7160 os        1 LIG     -0.248200
     16 S          -5.3480   -0.7930    0.7610 ss        1 LIG      0.005800
     17 C12        -0.6470    0.8660   -0.3600 ca        1 LIG      0.109100
     18 C13         4.1760    0.1660    0.3020 ca        1 LIG      0.107100
     19 C14         2.0200    1.0470    0.3590 ca        1 LIG      0.069100
     20 H           6.5490   -2.5620   -0.8640 ha        1 LIG      0.134000
     21 H1          7.3840   -0.7200    0.4520 ha        1 LIG      0.135000
     22 H2          4.2100   -2.6680   -1.4500 ha        1 LIG      0.135000
     23 H3          5.8800    1.0150    1.1970 ha        1 LIG      0.148500
     24 H4          2.7030   -0.9280   -0.7260 ha        1 LIG      0.148500
     25 H5         -0.8760   -0.2000    1.4380 ha        1 LIG      0.148000
     26 H6         -0.0750    1.9480   -2.0700 ha        1 LIG      0.148000
     27 H7          1.4520   -0.0510    2.0590 ha        1 LIG      0.153000
     28 H8          2.2440    2.1280   -1.4300 ha        1 LIG      0.153000
     29 H9         -2.8160    0.5680    1.1390 h1        1 LIG      0.053200
     30 H10        -2.4900   -0.9270    0.2940 h1        1 LIG      0.053200
     31 H11        -4.2590   -0.3950   -1.3290 h1        1 LIG      0.102700
     32 H12        -4.5850    1.0990   -0.4840 h1        1 LIG      0.102700
@<TRIPOS>BOND
     1    2    1 3   
     2    3    4 ar  
     3    4    6 ar  
     4    5    3 ar  
     5    5    7 ar  
     6    7   18 ar  
     7    8   10 ar  
     8    9   11 ar  
     9    9   17 ar  
    10   11   19 ar  
    11   12   14 1   
    12   12   13 1   
    13   14   17 1   
    14   16    2 1   
    15   16   13 1   
    16   17    8 ar  
    17   18    6 ar  
    18   18   15 1   
    19   19   10 ar  
    20   19   15 1   
    21    3   20 1   
    22    4   21 1   
    23    5   22 1   
    24    6   23 1   
    25    7   24 1   
    26    8   25 1   
    27    9   26 1   
    28   10   27 1   
    29   11   28 1   
    30   12   29 1   
    31   12   30 1   
    32   13   31 1   
    33   13   32 1   
@<TRIPOS>SUBSTRUCTURE
     1 LIG         1 TEMP              0 ****  ****    0 ROOT
