@<TRIPOS>MOLECULE
T3Q
   61    63     1     0     0
SMALL
bcc


@<TRIPOS>ATOM
      1 O          -7.0270   -3.6050    1.6450 o         1 LIG     -0.646500
      2 C          -6.4800   -2.7450    0.9780 c         1 LIG      0.715700
      3 N          -6.0670   -1.5980    1.5540 n         1 LIG     -0.592500
      4 C1         -5.4630   -0.6470    0.8170 c         1 LIG      0.805500
      5 O1         -5.0950    0.3820    1.3500 o         1 LIG     -0.677500
      6 C2         -6.2680   -2.9420   -0.4080 cc        1 LIG     -0.261400
      7 C3         -6.7150   -4.2160   -1.0750 c3        1 LIG     -0.043900
      8 C4         -5.6600   -1.9720   -1.1230 cd        1 LIG      0.051600
      9 N1         -5.2590   -0.8200   -0.5020 n         1 LIG     -0.381000
     10 C5         -4.5990    0.2320   -1.2780 c3        1 LIG      0.300500
     11 O2         -3.3380    0.5880   -0.6710 os        1 LIG     -0.423600
     12 C6         -5.4350    1.5310   -1.2430 c3        1 LIG     -0.121400
     13 C7         -4.3780    2.6560   -1.1780 c3        1 LIG      0.135100
     14 O3         -4.4800    3.5060   -2.3230 oh        1 LIG     -0.631800
     15 C8         -3.0290    1.9030   -1.1810 c3        1 LIG      0.071100
     16 C9         -2.0240    2.6070   -0.2660 c3        1 LIG      0.166400
     17 O4         -0.7720    1.9210   -0.3170 os        1 LIG     -0.616200
     18 P           0.5180    2.3880    0.5260 p5        1 LIG      1.628800
     19 O5          0.1650    2.4760    1.9610 o         1 LIG     -0.885000
     20 O6          1.0070    3.8300    0.0040 o         1 LIG     -0.885000
     21 O7          1.7040    1.3160    0.3300 os        1 LIG     -0.831800
     22 P1          3.0370    0.9590    1.1590 p5        1 LIG      1.627800
     23 O8          2.6550    0.0310    2.4180 o         1 LIG     -0.854000
     24 O9          3.6670    2.2090    1.6410 o         1 LIG     -0.854000
     25 O10         4.0670    0.1720    0.2050 os        1 LIG     -0.624200
     26 O11         5.2430   -3.6250   -1.7570 oh        1 LIG     -0.621800
     27 C10         5.7680   -2.6360   -0.8690 c3        1 LIG      0.112100
     28 C11         4.8630   -2.5180    0.3590 c3        1 LIG      0.132100
     29 O12         5.3580   -1.4880    1.2170 os        1 LIG     -0.438600
     30 C12         4.8510   -3.8490    1.1140 c3        1 LIG     -0.091100
     31 C13         5.8240   -1.2830   -1.5860 c3        1 LIG      0.019500
     32 N2          6.7500   -1.3670   -2.7230 n4        1 LIG     -0.802600
     33 C14         6.3140   -0.2160   -0.6030 c3        1 LIG      0.087100
     34 O13         6.3030    1.0620   -1.2400 oh        1 LIG     -0.646800
     35 C15         5.3870   -0.1920    0.6160 c3        1 LIG      0.423900
     36 H          -6.2080   -1.4550    2.5180 hn        1 LIG      0.336500
     37 H1         -7.1720   -4.8570   -0.3500 hc        1 LIG      0.059033
     38 H2         -5.8680   -4.7100   -1.5040 hc        1 LIG      0.059033
     39 H3         -7.4220   -3.9870   -1.8450 hc        1 LIG      0.059033
     40 H4         -5.4980   -2.0990   -2.1340 h4        1 LIG      0.229000
     41 H5         -4.4780   -0.1450   -2.2720 h2        1 LIG      0.109700
     42 H6         -6.0670    1.5530   -0.3800 hc        1 LIG      0.073200
     43 H7         -6.0840    1.6250   -2.0880 hc        1 LIG      0.073200
     44 H8         -4.4970    3.2860   -0.3210 h1        1 LIG      0.085700
     45 H9         -4.3770    2.9760   -3.1290 ho        1 LIG      0.468000
     46 H10        -2.5890    1.8660   -2.1550 h1        1 LIG      0.084700
     47 H11        -2.3920    2.6030    0.7390 h1        1 LIG      0.046700
     48 H12        -1.8910    3.6170   -0.5930 h1        1 LIG      0.046700
     49 H13         5.2080   -4.4810   -1.3030 ho        1 LIG      0.447000
     50 H14         6.7530   -2.9220   -0.5630 h1        1 LIG      0.064700
     51 H15         3.8680   -2.2760    0.0480 h1        1 LIG      0.088700
     52 H16         5.8460   -4.0910    1.4260 hc        1 LIG      0.045033
     53 H17         4.4810   -4.6200    0.4710 hc        1 LIG      0.045033
     54 H18         4.2180   -3.7660    1.9730 hc        1 LIG      0.045033
     55 H19         4.8500   -1.0240   -1.9440 hx        1 LIG      0.170700
     56 H20         7.6810   -1.6140   -2.3860 hn        1 LIG      0.460467
     57 H21         6.7890   -0.4650   -3.1970 hn        1 LIG      0.460467
     58 H22         6.4240   -2.0800   -3.3750 hn        1 LIG      0.460467
     59 H23         7.3110   -0.4450   -0.2910 h1        1 LIG      0.061700
     60 H24         5.4000    1.2740   -1.5250 ho        1 LIG      0.491000
     61 H25         5.7490    0.5230    1.3250 h2        1 LIG      0.087700
@<TRIPOS>BOND
     1    1    2 2   
     2    2    6 1   
     3    3    2 1   
     4    3    4 1   
     5    4    9 1   
     6    5    4 2   
     7    6    7 1   
     8    6    8 2   
     9    9    8 1   
    10    9   10 1   
    11   10   11 1   
    12   10   12 1   
    13   11   15 1   
    14   12   13 1   
    15   13   14 1   
    16   15   13 1   
    17   15   16 1   
    18   17   16 1   
    19   17   18 1   
    20   18   21 1   
    21   19   18 1   
    22   20   18 1   
    23   21   22 1   
    24   22   25 1   
    25   23   22 1   
    26   24   22 1   
    27   25   35 1   
    28   27   26 1   
    29   28   27 1   
    30   28   30 1   
    31   29   28 1   
    32   31   27 1   
    33   31   32 1   
    34   33   31 1   
    35   34   33 1   
    36   35   29 1   
    37   35   33 1   
    38    3   36 1   
    39    7   37 1   
    40    7   38 1   
    41    7   39 1   
    42    8   40 1   
    43   10   41 1   
    44   12   42 1   
    45   12   43 1   
    46   13   44 1   
    47   14   45 1   
    48   15   46 1   
    49   16   47 1   
    50   16   48 1   
    51   26   49 1   
    52   27   50 1   
    53   28   51 1   
    54   30   52 1   
    55   30   53 1   
    56   30   54 1   
    57   31   55 1   
    58   32   56 1   
    59   32   57 1   
    60   32   58 1   
    61   33   59 1   
    62   34   60 1   
    63   35   61 1   
@<TRIPOS>SUBSTRUCTURE
     1 LIG         1 TEMP              0 ****  ****    0 ROOT
