@<TRIPOS>MOLECULE
3TD
   35    36     1     0     0
SMALL
bcc


@<TRIPOS>ATOM
      1 P           4.2630   -1.0990   -0.1570 P.5       1 LIG      1.333900
      2 N          -4.3730   -0.5950   -1.3850 N.        1 LIG     -0.410100
      3 C          -4.4590   -1.3390   -0.2660 C.        1 LIG      0.782500
      4 O          -5.4270   -2.0540   -0.0950 O.3       1 LIG     -0.704500
      5 N1         -3.4880   -1.3020    0.6650 N.        1 LIG     -0.508400
      6 C1         -2.4080   -0.5150    0.4900 C.        1 LIG      0.736700
      7 O1         -1.5280   -0.4810    1.3320 O.3       1 LIG     -0.697500
      8 C2         -2.3050    0.2730   -0.6820 C.c       1 LIG     -0.374400
      9 C3         -3.2940    0.2170   -1.6000 C.d       1 LIG      0.107600
     10 C4         -1.1080    1.1620   -0.9020 C.3       1 LIG      0.191300
     11 C5         -3.6050   -2.1210    1.8740 C.3       1 LIG      0.092300
     12 C6         -1.0780    2.2740    0.1640 C.3       1 LIG      0.120100
     13 O2         -1.1450    3.5610   -0.4530 O.h       1 LIG     -0.615800
     14 C7          0.2840    2.0820    0.8740 C.3       1 LIG      0.029100
     15 O3          0.9040    3.3430    1.1360 O.h       1 LIG     -0.636800
     16 C8          1.0890    1.2790   -0.1790 C.3       1 LIG      0.075100
     17 O4          0.1010    0.3990   -0.7580 O.2       1 LIG     -0.442600
     18 C9          2.2010    0.4720    0.4930 C.3       1 LIG      0.200400
     19 O5          2.9990   -0.1660   -0.5070 O.2       1 LIG     -0.577200
     20 O6          5.4100   -0.2100    0.5400 O.3       1 LIG     -0.917167
     21 O7          3.8410   -2.1740    0.7680 O.3       1 LIG     -0.917167
     22 O8          4.8390   -1.7510   -1.5120 O.3       1 LIG     -0.917167
     23 H          -5.0940   -0.6360   -2.0540 H         1 LIG      0.424500
     24 H1         -3.2360    0.7840   -2.4600 H         1 LIG      0.289000
     25 H2         -1.1780    1.5800   -1.8850 H         1 LIG      0.072700
     26 H3         -4.5190   -2.6760    1.8420 H         1 LIG      0.037033
     27 H4         -3.6030   -1.4870    2.7360 H         1 LIG      0.037033
     28 H5         -2.7780   -2.7980    1.9270 H         1 LIG      0.037033
     29 H6         -1.9050    2.2180    0.8400 H         1 LIG      0.092700
     30 H7         -0.4100    3.6580   -1.0790 H         1 LIG      0.403000
     31 H8          0.2110    1.5960    1.8250 H         1 LIG      0.196700
     32 H9          0.9990    3.8350    0.3060 H         1 LIG      0.410000
     33 H10         1.5700    1.9030   -0.9030 H         1 LIG      0.034700
     34 H11         1.7680   -0.2700    1.1300 H         1 LIG      0.008700
     35 H12         2.8150    1.1270    1.0740 H         1 LIG      0.008700
@<TRIPOS>BOND
     1    1   19 1   
     2    1   20 1   
     3    1   21 1   
     4    1   22 1   
     5    2    3 1   
     6    2    9 1   
     7    3    4 2   
     8    3    5 1   
     9    5    6 1   
    10    5   11 1   
    11    6    7 2   
    12    6    8 1   
    13    8    9 2   
    14    8   10 1   
    15   10   12 1   
    16   10   17 1   
    17   12   13 1   
    18   12   14 1   
    19   14   15 1   
    20   14   16 1   
    21   16   17 1   
    22   16   18 1   
    23   18   19 1   
    24    2   23 1   
    25    9   24 1   
    26   10   25 1   
    27   11   26 1   
    28   11   27 1   
    29   11   28 1   
    30   12   29 1   
    31   13   30 1   
    32   14   31 1   
    33   15   32 1   
    34   16   33 1   
    35   18   34 1   
    36   18   35 1   
@<TRIPOS>SUBSTRUCTURE
     1 LIG         1 TEMP              0 ****  ****    0 ROOT
