@<TRIPOS>MOLECULE
2J8
   66    69     1     0     0
SMALL
bcc


@<TRIPOS>ATOM
      1 SE         -1.7940    5.0890   -0.4850 S.3       1 LIG     -0.031633
      2 S1          5.3690   -0.9680   -0.3630 S.3       1 LIG     -0.031633
      3 S2         -3.4700   -4.0880   -0.5670 S.3       1 LIG     -0.031633
      4 C          -3.3760   -1.5040   -0.3380 C.c       1 LIG      0.276800
      5 C1         -3.6580   -0.0580   -0.2470 C.        1 LIG      0.594600
      6 N          -2.6280    0.8220   -0.0650 N.        1 LIG     -0.527233
      7 C2         -3.0490    2.2380    0.0520 C.3       1 LIG      0.073400
      8 C3         -1.8550    3.1300   -0.1620 C.d       1 LIG      0.355033
      9 C4          0.1880    5.0430   -0.5830 C.d       1 LIG     -0.196733
     10 C5          0.4070    3.7150   -0.3840 C.c       1 LIG      0.276800
     11 C6          1.8020    3.2360   -0.3820 C.        1 LIG      0.594600
     12 N1          2.0710    1.9100   -0.1950 N.        1 LIG     -0.527233
     13 C7          3.5160    1.5840   -0.1520 C.3       1 LIG      0.073400
     14 C8          3.6930    0.0900   -0.2310 C.c       1 LIG      0.355033
     15 C9          4.3360   -2.6620   -0.3840 C.c       1 LIG     -0.196733
     16 C10         3.0690   -2.1710   -0.3030 C.d       1 LIG      0.276800
     17 C11         1.9530   -3.1340   -0.2880 C.        1 LIG      0.594600
     18 N2          0.6620   -2.6880   -0.2300 N.        1 LIG     -0.527233
     19 C12        -0.3500   -3.7690   -0.1740 C.3       1 LIG      0.073400
     20 C13        -1.7290   -3.1740   -0.2870 C.d       1 LIG      0.355033
     21 C14        -4.4260   -2.3490   -0.5280 C.d       1 LIG     -0.196733
     22 N3         -2.1130   -1.9320   -0.2300 N.c       1 LIG     -0.620000
     23 N4          2.8050   -0.8610   -0.2310 N.d       1 LIG     -0.620000
     24 N5         -0.5860    2.8400   -0.1890 N.c       1 LIG     -0.620000
     25 O          -4.8010    0.3470   -0.3330 O.3       1 LIG     -0.606767
     26 O1          2.7140    4.0230   -0.5490 O.3       1 LIG     -0.606767
     27 O2          2.1810   -4.3270   -0.3280 O.3       1 LIG     -0.606767
     28 C15        -3.6280    2.4850    1.4470 C.3       1 LIG     -0.067033
     29 C16        -4.0620    3.9470    1.5670 C.3       1 LIG     -0.094433
     30 C17        -4.8370    1.5740    1.6660 C.3       1 LIG     -0.094433
     31 C18         4.1170    2.1000    1.1570 C.3       1 LIG     -0.067033
     32 C19         3.5140    1.3310    2.3340 C.3       1 LIG     -0.094433
     33 C20         5.6340    1.8950    1.1380 C.3       1 LIG     -0.094433
     34 C21        -0.2250   -4.5160    1.1550 C.3       1 LIG     -0.067033
     35 C22        -0.5910   -3.5760    2.3060 C.3       1 LIG     -0.094433
     36 C23        -1.1740   -5.7160    1.1570 C.3       1 LIG     -0.094433
     37 H          -1.6860    0.5390   -0.0160 H         1 LIG      0.330500
     38 H1         -3.7950    2.4530   -0.6850 H         1 LIG      0.097033
     39 H2          0.8610    5.8090   -0.7400 H         1 LIG      0.204333
     40 H3          1.3660    1.2300   -0.0970 H         1 LIG      0.330500
     41 H4          4.0120    2.0480   -0.9790 H         1 LIG      0.097033
     42 H5          4.6660   -3.6380   -0.4400 H         1 LIG      0.204333
     43 H6          0.4250   -1.7320   -0.2260 H         1 LIG      0.330500
     44 H7         -0.1880   -4.4500   -0.9830 H         1 LIG      0.097033
     45 H8         -5.4330   -2.1440   -0.6240 H         1 LIG      0.204333
     46 H9         -2.8830    2.2720    2.1850 H         1 LIG      0.067033
     47 H10        -4.8070    4.1600    0.8290 H         1 LIG      0.039922
     48 H11        -3.2160    4.5840    1.4140 H         1 LIG      0.039922
     49 H12        -4.4670    4.1200    2.5420 H         1 LIG      0.039922
     50 H13        -5.5820    1.7860    0.9280 H         1 LIG      0.039922
     51 H14        -5.2420    1.7470    2.6410 H         1 LIG      0.039922
     52 H15        -4.5330    0.5510    1.5820 H         1 LIG      0.039922
     53 H16         3.8990    3.1420    1.2620 H         1 LIG      0.067033
     54 H17         3.7320    0.2890    2.2280 H         1 LIG      0.039922
     55 H18         2.4540    1.4740    2.3480 H         1 LIG      0.039922
     56 H19         3.9340    1.6930    3.2490 H         1 LIG      0.039922
     57 H20         5.8520    0.8530    1.0320 H         1 LIG      0.039922
     58 H21         6.0540    2.2560    2.0530 H         1 LIG      0.039922
     59 H22         6.0560    2.4330    0.3150 H         1 LIG      0.039922
     60 H23         0.7820   -4.8560    1.2780 H         1 LIG      0.067033
     61 H24        -1.5980   -3.2360    2.1820 H         1 LIG      0.039922
     62 H25         0.0720   -2.7360    2.3050 H         1 LIG      0.039922
     63 H26        -0.5030   -4.0990    3.2350 H         1 LIG      0.039922
     64 H27        -2.1810   -5.3750    1.0330 H         1 LIG      0.039922
     65 H28        -1.0860   -6.2390    2.0870 H         1 LIG      0.039922
     66 H29        -0.9190   -6.3740    0.3520 H         1 LIG      0.039922
@<TRIPOS>BOND
     1    2   15 ar  
     2    2   14 ar  
     3    3   21 ar  
     4    4    5 1   
     5    5   25 2   
     6    6    5 1   
     7    6    7 1   
     8    7    8 1   
     9    8    1 ar  
    10    9    1 ar  
    11   10    9 ar  
    12   11   10 1   
    13   11   26 2   
    14   12   11 1   
    15   13   12 1   
    16   14   13 1   
    17   14   23 ar  
    18   15   16 ar  
    19   16   17 1   
    20   16   23 ar  
    21   17   27 2   
    22   18   17 1   
    23   18   19 1   
    24   19   20 1   
    25   20    3 ar  
    26   20   22 ar  
    27   21    4 ar  
    28   22    4 ar  
    29   24    8 ar  
    30   24   10 ar  
    31   28    7 1   
    32   28   30 1   
    33   29   28 1   
    34   31   13 1   
    35   31   32 1   
    36   33   31 1   
    37   34   19 1   
    38   35   34 1   
    39   36   34 1   
    40    6   37 1   
    41    7   38 1   
    42    9   39 1   
    43   12   40 1   
    44   13   41 1   
    45   15   42 1   
    46   18   43 1   
    47   19   44 1   
    48   21   45 1   
    49   28   46 1   
    50   29   47 1   
    51   29   48 1   
    52   29   49 1   
    53   30   50 1   
    54   30   51 1   
    55   30   52 1   
    56   31   53 1   
    57   32   54 1   
    58   32   55 1   
    59   32   56 1   
    60   33   57 1   
    61   33   58 1   
    62   33   59 1   
    63   34   60 1   
    64   35   61 1   
    65   35   62 1   
    66   35   63 1   
    67   36   64 1   
    68   36   65 1   
    69   36   66 1   
@<TRIPOS>SUBSTRUCTURE
     1 LIG         1 TEMP              0 ****  ****    0 ROOT
