@<TRIPOS>MOLECULE
ZPN
   75    76     1     0     0
SMALL
bcc


@<TRIPOS>ATOM
      1 C          -1.0860    1.2730   -0.0570 c         1 LIG      0.647300
      2 O          -1.1840    1.3590   -1.2670 o         1 LIG     -0.569000
      3 C1         -0.4380    2.3050    0.6670 ce        1 LIG     -0.211200
      4 C2          0.3470    3.1790   -0.0030 cf        1 LIG     -0.043000
      5 C3          1.0460    4.2560    0.6950 cf        1 LIG     -0.169000
      6 C4          2.3210    4.5100    0.3760 c2        1 LIG     -0.065400
      7 C5          3.0550    5.6270    1.0670 c3        1 LIG     -0.073900
      8 C6          3.0190    3.6690   -0.6600 c3        1 LIG     -0.161200
      9 C7          4.3130    3.1430   -0.0960 c         1 LIG      0.573100
     10 O1          5.2820    3.8620   -0.0420 o         1 LIG     -0.527100
     11 C8          4.4020    1.7240    0.4020 c3        1 LIG     -0.182400
     12 C9          4.5620    0.7740   -0.7850 c3        1 LIG     -0.069400
     13 C10         5.5550   -0.3340   -0.4310 c3        1 LIG     -0.094400
     14 C11         4.8960   -1.6970   -0.6540 c3        1 LIG      0.147100
     15 C12         5.8120   -2.7980   -0.1170 c3        1 LIG     -0.071200
     16 C13         5.0040   -3.7380    0.7420 c2        1 LIG     -0.115400
     17 C14         5.5020   -4.2010    1.8610 c2        1 LIG     -0.221000
     18 C15         3.6190   -4.1410    0.3040 c3        1 LIG     -0.073200
     19 C16         2.8740   -2.9120   -0.2220 c3        1 LIG      0.182300
     20 O2          3.6480   -1.7390    0.0410 os        1 LIG     -0.420600
     21 C17         1.5370   -2.7870    0.4620 c2        1 LIG     -0.168200
     22 C18         0.5280   -2.2140   -0.1540 c2        1 LIG     -0.094400
     23 C19         0.7070   -1.6960   -1.5580 c3        1 LIG     -0.067900
     24 C20        -0.8060   -2.0850    0.5360 c3        1 LIG     -0.053200
     25 C21        -1.6580   -1.0210   -0.1590 c3        1 LIG      0.114100
     26 O3         -1.5970    0.2030    0.5760 os        1 LIG     -0.419900
     27 C22        -3.1090   -1.4990   -0.2320 c3        1 LIG      0.282500
     28 O4         -3.1720   -2.7190   -0.9730 oh        1 LIG     -0.601800
     29 N          -3.9260   -0.4810   -0.8970 n         1 LIG     -0.605900
     30 C23        -5.1650   -0.2070   -0.4410 c         1 LIG      0.677300
     31 O5         -5.6040   -0.8050    0.5230 o         1 LIG     -0.605100
     32 C24        -5.9800    0.8090   -1.1060 ce        1 LIG     -0.243200
     33 C25        -7.2590    1.0100   -0.7170 cf        1 LIG     -0.045000
     34 C26        -7.8820    0.1010    0.2460 cf        1 LIG     -0.167000
     35 C27        -9.0970    0.3700    0.7280 c2        1 LIG     -0.134200
     36 C28        -9.7380   -0.5660    1.7190 c3        1 LIG     -0.070900
     37 H          -0.5630    2.3880    1.6880 ha        1 LIG      0.160000
     38 H1          0.4540    3.0840   -1.0250 ha        1 LIG      0.146000
     39 H2          0.5650    4.8110    1.4210 ha        1 LIG      0.138000
     40 H3          2.4000    6.1070    1.7640 hc        1 LIG      0.053367
     41 H4          3.3860    6.3390    0.3400 hc        1 LIG      0.053367
     42 H5          3.9010    5.2290    1.5880 hc        1 LIG      0.053367
     43 H6          3.2240    4.2660   -1.5240 hc        1 LIG      0.080700
     44 H7          2.3900    2.8470   -0.9330 hc        1 LIG      0.080700
     45 H8          3.5090    1.4780    0.9380 hc        1 LIG      0.067700
     46 H9          5.2470    1.6270    1.0510 hc        1 LIG      0.067700
     47 H10         4.9250    1.3200   -1.6310 hc        1 LIG      0.053200
     48 H11         3.6140    0.3370   -1.0180 hc        1 LIG      0.053200
     49 H12         5.8430   -0.2400    0.5950 hc        1 LIG      0.050200
     50 H13         6.4210   -0.2500   -1.0530 hc        1 LIG      0.050200
     51 H14         4.7300   -1.8480   -1.7000 h1        1 LIG      0.059700
     52 H15         6.5930   -2.3600    0.4680 hc        1 LIG      0.060700
     53 H16         6.2440   -3.3380   -0.9340 hc        1 LIG      0.060700
     54 H17         6.4500   -3.9230    2.1580 ha        1 LIG      0.115500
     55 H18         4.9460   -4.8440    2.4460 ha        1 LIG      0.115500
     56 H19         3.0870   -4.5520    1.1360 hc        1 LIG      0.062700
     57 H20         3.6890   -4.8750   -0.4710 hc        1 LIG      0.062700
     58 H21         2.7230   -3.0200   -1.2760 h1        1 LIG      0.043700
     59 H22         1.4130   -3.1530    1.4190 ha        1 LIG      0.132000
     60 H23         1.7120   -1.8750   -1.8790 hc        1 LIG      0.047367
     61 H24         0.5070   -0.6450   -1.5790 hc        1 LIG      0.047367
     62 H25         0.0290   -2.2010   -2.2140 hc        1 LIG      0.047367
     63 H26        -0.6510   -1.8030    1.5560 hc        1 LIG      0.074700
     64 H27        -1.3150   -3.0250    0.4910 hc        1 LIG      0.074700
     65 H28        -1.2830   -0.8580   -1.1480 h1        1 LIG      0.077700
     66 H29        -3.4800   -1.6630    0.7580 h2        1 LIG      0.125700
     67 H30        -2.8350   -2.5700   -1.8700 ho        1 LIG      0.399000
     68 H31        -3.5700    0.0030   -1.6770 hn        1 LIG      0.325500
     69 H32        -5.5790    1.3720   -1.8720 ha        1 LIG      0.138000
     70 H33        -7.7960    1.8040   -1.0990 ha        1 LIG      0.122000
     71 H34        -7.3820   -0.7480    0.5520 ha        1 LIG      0.162000
     72 H35        -9.5970    1.2190    0.4220 ha        1 LIG      0.115000
     73 H36        -9.0770   -1.3840    1.9160 hc        1 LIG      0.047033
     74 H37       -10.6560   -0.9390    1.3150 hc        1 LIG      0.047033
     75 H38        -9.9360   -0.0400    2.6300 hc        1 LIG      0.047033
@<TRIPOS>BOND
     1    1   26 1   
     2    2    1 2   
     3    3    1 1   
     4    4    3 2   
     5    5    4 1   
     6    6    5 2   
     7    7    6 1   
     8    8    6 1   
     9    9    8 1   
    10    9   11 1   
    11   10    9 2   
    12   11   12 1   
    13   12   13 1   
    14   13   14 1   
    15   14   15 1   
    16   14   20 1   
    17   15   16 1   
    18   16   17 2   
    19   16   18 1   
    20   19   18 1   
    21   19   21 1   
    22   20   19 1   
    23   21   22 2   
    24   22   23 1   
    25   22   24 1   
    26   25   24 1   
    27   25   27 1   
    28   26   25 1   
    29   27   29 1   
    30   28   27 1   
    31   29   30 1   
    32   30   31 2   
    33   32   30 1   
    34   32   33 2   
    35   33   34 1   
    36   34   35 2   
    37   35   36 1   
    38    3   37 1   
    39    4   38 1   
    40    5   39 1   
    41    7   40 1   
    42    7   41 1   
    43    7   42 1   
    44    8   43 1   
    45    8   44 1   
    46   11   45 1   
    47   11   46 1   
    48   12   47 1   
    49   12   48 1   
    50   13   49 1   
    51   13   50 1   
    52   14   51 1   
    53   15   52 1   
    54   15   53 1   
    55   17   54 1   
    56   17   55 1   
    57   18   56 1   
    58   18   57 1   
    59   19   58 1   
    60   21   59 1   
    61   23   60 1   
    62   23   61 1   
    63   23   62 1   
    64   24   63 1   
    65   24   64 1   
    66   25   65 1   
    67   27   66 1   
    68   28   67 1   
    69   29   68 1   
    70   32   69 1   
    71   33   70 1   
    72   34   71 1   
    73   35   72 1   
    74   36   73 1   
    75   36   74 1   
    76   36   75 1   
@<TRIPOS>SUBSTRUCTURE
     1 LIG         1 TEMP              0 ****  ****    0 ROOT
