@<TRIPOS>MOLECULE
ILV
   45    47     1     0     0
SMALL
bcc


@<TRIPOS>ATOM
      1 C           3.4820   -1.1970   -0.7720 C.3       1 LIG     -0.093100
      2 C1          2.2560   -1.9150   -0.2050 C.3       1 LIG     -0.066700
      3 C2          2.6670   -2.7370    1.0190 C.3       1 LIG     -0.093100
      4 C3          1.1960   -0.8760    0.2070 C.3       1 LIG      0.165500
      5 C4          0.7880   -0.0890   -1.0110 C.        1 LIG      0.686500
      6 O           0.6090   -0.6780   -2.0720 O.3       1 LIG     -0.630500
      7 N           0.6170    1.2510   -0.9650 N.        1 LIG     -0.561900
      8 CA          1.0170    2.1260    0.1570 C.3       1 LIG      0.068700
      9 C5          2.5270    2.1240    0.3820 C.3       1 LIG      0.116400
     10 O1          3.1790    2.6970   -0.7530 O.h       1 LIG     -0.597800
     11 C6          0.2480    1.6440    1.4040 C.3       1 LIG     -0.024200
     12 C7         -1.1240    1.3900    0.8330 C.c       1 LIG     -0.153400
     13 C8         -1.6600    0.1520    0.3020 C.a       1 LIG     -0.100800
     14 C9         -2.0860    2.3260    0.7200 C.d       1 LIG     -0.100100
     15 N1         -3.1800    1.7860    0.1000 N.a       1 LIG     -0.189400
     16 C10        -2.9470    0.4560   -0.1760 C.a       1 LIG     -0.043200
     17 C11        -3.7060   -0.5260   -0.8030 C.a       1 LIG     -0.144000
     18 C12        -3.2030   -1.8010   -0.9390 C.a       1 LIG     -0.111000
     19 C13        -1.9500   -2.1210   -0.4430 C.a       1 LIG     -0.119000
     20 C14        -1.1740   -1.1660    0.2000 C.a       1 LIG      0.145600
     21 N2          0.0290   -1.5650    0.7470 N.h       1 LIG     -0.657000
     22 C15         0.0140   -1.7170    2.1940 C.3       1 LIG      0.177100
     23 H           3.1950   -0.6220   -1.6280 H         1 LIG      0.035867
     24 H3          4.2180   -1.9190   -1.0580 H         1 LIG      0.035867
     25 H4          3.8910   -0.5470   -0.0270 H         1 LIG      0.035867
     26 H5          1.8470   -2.5650   -0.9510 H         1 LIG      0.085700
     27 H6          3.0760   -2.0870    1.7640 H         1 LIG      0.035867
     28 H7          3.4030   -3.4590    0.7330 H         1 LIG      0.035867
     29 H8          1.8100   -3.2400    1.4150 H         1 LIG      0.035867
     30 H9          1.5990   -0.2190    0.9500 H         1 LIG      0.040700
     31 H10         0.1910    1.6790   -1.7420 H         1 LIG      0.312500
     32 HA          0.7700    3.1430   -0.0640 H         1 LIG      0.063700
     33 H1          2.8660    1.1180    0.5180 H         1 LIG      0.051200
     34 H2          2.7580    2.6990    1.2540 H         1 LIG      0.051200
     35 H11         2.9700    2.1750   -1.5440 H         1 LIG      0.408000
     36 H12         0.2220    2.3980    2.1630 H         1 LIG      0.054200
     37 H13         0.6850    0.7930    1.8830 H         1 LIG      0.054200
     38 H14        -2.0100    3.3010    1.0500 H         1 LIG      0.165000
     39 H15        -4.0080    2.2730   -0.1160 H         1 LIG      0.300700
     40 H16        -4.6450   -0.3000   -1.1660 H         1 LIG      0.133000
     41 H17        -3.7650   -2.5240   -1.4150 H         1 LIG      0.134000
     42 H18        -1.5890   -3.0810   -0.5530 H         1 LIG      0.146000
     43 H19         0.9820   -2.0270    2.5300 H         1 LIG      0.036700
     44 H20        -0.7120   -2.4540    2.4680 H         1 LIG      0.036700
     45 H21        -0.2390   -0.7820    2.6480 H         1 LIG      0.036700
@<TRIPOS>BOND
     1    1    2 1   
     2    2    4 1   
     3    3    2 1   
     4    4   21 1   
     5    4    5 1   
     6    5    7 1   
     7    5    6 2   
     8    8    7 1   
     9    8    9 1   
    10    9   10 1   
    11   11    8 1   
    12   12   13 1   
    13   12   11 1   
    14   13   20 ar  
    15   14   12 2   
    16   15   14 1   
    17   15   16 1   
    18   16   13 ar  
    19   17   16 ar  
    20   17   18 ar  
    21   18   19 ar  
    22   19   20 ar  
    23   20   21 1   
    24   21   22 1   
    25    1   23 1   
    26    1   24 1   
    27    1   25 1   
    28    2   26 1   
    29    3   27 1   
    30    3   28 1   
    31    3   29 1   
    32    4   30 1   
    33    7   31 1   
    34    8   32 1   
    35    9   33 1   
    36    9   34 1   
    37   10   35 1   
    38   11   36 1   
    39   11   37 1   
    40   14   38 1   
    41   15   39 1   
    42   17   40 1   
    43   18   41 1   
    44   19   42 1   
    45   22   43 1   
    46   22   44 1   
    47   22   45 1   
@<TRIPOS>SUBSTRUCTURE
     1 LIG         1 TEMP              0 ****  ****    0 ROOT
