@<TRIPOS>MOLECULE
7IG
   45    47     1     0     0
SMALL
bcc


@<TRIPOS>ATOM
      1 C           4.4350   -1.3940    0.2210 C.a       1 LIG      0.718200
      2 N           5.7590   -1.3650    0.1270 N.b       1 LIG     -0.821000
      3 C1          6.3910   -0.2420   -0.1820 C.a       1 LIG      0.898900
      4 N1          5.7390    0.8890   -0.4090 N.b       1 LIG     -0.788000
      5 C2          4.4190    0.9440   -0.3350 C.a       1 LIG      0.521600
      6 C3          3.7100   -0.2100   -0.0070 C.p       1 LIG     -0.382600
      7 N2          3.7790   -2.5690    0.5450 N.h       1 LIG     -0.945500
      8 N3          7.7720   -0.2510   -0.2710 N.h       1 LIG     -0.925500
      9 C4          3.6920    2.2380   -0.5950 C.3       1 LIG     -0.138700
     10 C5          3.6110    3.0470    0.7010 C.3       1 LIG     -0.086100
     11 C6          0.2310   -0.3410    1.4070 C.a       1 LIG     -0.188500
     12 C7          1.6070   -0.3580    1.3220 C.a       1 LIG     -0.089000
     13 C8          2.2300   -0.1930    0.0860 C.p       1 LIG     -0.058000
     14 C9          1.4600   -0.0050   -1.0610 C.a       1 LIG     -0.089000
     15 C10         0.0840    0.0060   -0.9720 C.a       1 LIG     -0.188500
     16 C11        -0.5350   -0.1600    0.2610 C.a       1 LIG      0.139600
     17 N4         -1.9290   -0.1430    0.3500 N.h       1 LIG     -0.726600
     18 C12        -6.1870    1.1840    0.1830 C.a       1 LIG      0.152900
     19 C13        -4.8430    1.2020   -0.1530 C.a       1 LIG     -0.172000
     20 C14        -4.1990    0.0270   -0.4910 C.a       1 LIG     -0.054300
     21 C15        -4.8950   -1.1660   -0.5000 C.a       1 LIG     -0.172000
     22 C16        -6.2370   -1.1880   -0.1600 C.a       1 LIG      0.152900
     23 C17        -6.8840   -0.0120    0.1790 C.a       1 LIG     -0.203000
     24 F          -6.8160    2.3320    0.5140 F.        1 LIG     -0.132400
     25 C18        -2.7370    0.0490   -0.8570 C.3       1 LIG      0.226100
     26 F1         -6.9170   -2.3560   -0.1640 F.        1 LIG     -0.132400
     27 H           4.2940   -3.3930    0.7030 H         1 LIG      0.424800
     28 H1          2.7970   -2.5810    0.6180 H         1 LIG      0.424800
     29 H2          8.2710   -1.0840   -0.1050 H         1 LIG      0.422800
     30 H3          8.2560    0.5750   -0.5000 H         1 LIG      0.422800
     31 H4          2.7040    2.0270   -0.9460 H         1 LIG      0.060200
     32 H5          4.2210    2.8020   -1.3350 H         1 LIG      0.060200
     33 H6          3.0820    2.4830    1.4410 H         1 LIG      0.039700
     34 H7          3.0950    3.9660    0.5160 H         1 LIG      0.039700
     35 H8          4.5990    3.2580    1.0520 H         1 LIG      0.039700
     36 H9         -0.2310   -0.4630    2.3220 H         1 LIG      0.134000
     37 H10         2.1750   -0.4930    2.1730 H         1 LIG      0.140500
     38 H11         1.9190    0.1260   -1.9760 H         1 LIG      0.140500
     39 H12        -0.4870    0.1380   -1.8220 H         1 LIG      0.134000
     40 H13        -2.3680   -0.2600    1.2230 H         1 LIG      0.399800
     41 H14        -4.3230    2.0930   -0.1510 H         1 LIG      0.161000
     42 H15        -4.4150   -2.0410   -0.7600 H         1 LIG      0.161000
     43 H16        -7.8850   -0.0270    0.4290 H         1 LIG      0.168000
     44 H17        -2.5310   -0.7380   -1.5530 H         1 LIG      0.054700
     45 H18        -2.4950    0.9910   -1.3020 H         1 LIG      0.054700
@<TRIPOS>BOND
     1    1    2 ar  
     2    1    6 ar  
     3    1    7 1   
     4    2    3 ar  
     5    3    4 ar  
     6    3    8 1   
     7    4    5 ar  
     8    5    6 ar  
     9    5    9 1   
    10    6   13 1   
    11    9   10 1   
    12   11   12 ar  
    13   11   16 ar  
    14   12   13 ar  
    15   13   14 ar  
    16   14   15 ar  
    17   15   16 ar  
    18   16   17 1   
    19   17   25 1   
    20   18   19 ar  
    21   18   23 ar  
    22   18   24 1   
    23   19   20 ar  
    24   20   21 ar  
    25   20   25 1   
    26   21   22 ar  
    27   22   23 ar  
    28   22   26 1   
    29    7   27 1   
    30    7   28 1   
    31    8   29 1   
    32    8   30 1   
    33    9   31 1   
    34    9   32 1   
    35   10   33 1   
    36   10   34 1   
    37   10   35 1   
    38   11   36 1   
    39   12   37 1   
    40   14   38 1   
    41   15   39 1   
    42   17   40 1   
    43   19   41 1   
    44   21   42 1   
    45   23   43 1   
    46   25   44 1   
    47   25   45 1   
@<TRIPOS>SUBSTRUCTURE
     1 LIG         1 TEMP              0 ****  ****    0 ROOT
