@<TRIPOS>MOLECULE
J4Q
   24    25     1     0     0
SMALL
bcc


@<TRIPOS>ATOM
      1 N          -2.2850    1.4150    0.8050 nc        1 LIG     -0.587000
      2 N1          2.2360    1.1890    0.0780 nc        1 LIG     -0.618000
      3 C          -0.8240    2.5620   -0.3260 cd        1 LIG     -0.193600
      4 C1          0.3700    0.6430   -1.4640 c3        1 LIG     -0.005000
      5 C2          1.6010    0.3040   -0.6650 cc        1 LIG      0.278600
      6 C3          2.1400   -0.9190   -0.6510 cd        1 LIG     -0.214400
      7 C4          3.2800    0.7810    0.7170 cd        1 LIG      0.359300
      8 C5         -2.7740   -1.5650   -1.2860 c3        1 LIG     -0.362300
      9 S          -1.7620   -1.1950    0.1740 sy        1 LIG      1.359900
     10 O          -2.4970   -1.4420    1.3650 o         1 LIG     -0.662300
     11 O1         -0.4450   -1.7010    0.0080 o         1 LIG     -0.662300
     12 C6         -1.5640    0.5550    0.1400 cd        1 LIG      0.090400
     13 C7         -1.8520    2.6560    0.5380 cc        1 LIG      0.283200
     14 N2         -0.6410    1.2290   -0.5790 na        1 LIG     -0.096900
     15 S1          3.5540   -0.8770    0.4000 ss        1 LIG     -0.052300
     16 H          -0.2790    3.3440   -0.7210 h4        1 LIG      0.194000
     17 H1         -0.0210   -0.2470   -1.9120 h1        1 LIG      0.098700
     18 H2          0.6240    1.3460   -2.2300 h1        1 LIG      0.098700
     19 H3          1.7900   -1.7430   -1.1650 h4        1 LIG      0.214000
     20 H4          3.8650    1.3700    1.3300 h5        1 LIG      0.058100
     21 H5         -2.9450   -2.6200   -1.3430 h1        1 LIG      0.123367
     22 H6         -2.2620   -1.2380   -2.1670 h1        1 LIG      0.123367
     23 H7         -3.7120   -1.0550   -1.2080 h1        1 LIG      0.123367
     24 H8         -2.2390    3.5300    0.9270 h4        1 LIG      0.052100
@<TRIPOS>BOND
     1    1   12 ar  
     2    1   13 ar  
     3    2    7 ar  
     4    2    5 ar  
     5    3   13 ar  
     6    3   14 ar  
     7    4    5 1   
     8    4   14 1   
     9    5    6 ar  
    10    6   15 ar  
    11    7   15 ar  
    12    8    9 1   
    13    9   10 2   
    14    9   11 2   
    15    9   12 1   
    16   12   14 ar  
    17    3   16 1   
    18    4   17 1   
    19    4   18 1   
    20    6   19 1   
    21    7   20 1   
    22    8   21 1   
    23    8   22 1   
    24    8   23 1   
    25   13   24 1   
@<TRIPOS>SUBSTRUCTURE
     1 LIG         1 TEMP              0 ****  ****    0 ROOT
