@<TRIPOS>MOLECULE
BEA
   21    23     1     0     0
SMALL
bcc


@<TRIPOS>ATOM
      1 C           1.5110    1.2160   -0.0010 ca        1 LIG     -0.025300
      2 C1          1.1430    2.6770   -0.0010 c3        1 LIG     -0.077800
      3 C2          2.8360    0.8500    0.0000 ca        1 LIG     -0.079000
      4 C3          3.2140   -0.4820    0.0000 ca        1 LIG     -0.087000
      5 C4          2.2350   -1.4600    0.0000 ca        1 LIG     -0.059000
      6 C5          0.9100   -1.0930    0.0000 ca        1 LIG     -0.110100
      7 C6         -1.7230   -0.6030    0.0000 cc        1 LIG     -0.020700
      8 C7          0.4970    0.2450    0.0050 ca        1 LIG     -0.028200
      9 C8         -1.7390    1.5620    0.0000 cc        1 LIG      0.469400
     10 N          -0.8830    0.4750    0.0000 na        1 LIG     -0.112000
     11 N1         -2.9590    1.1070    0.0000 n2        1 LIG     -0.426800
     12 N2         -2.9520   -0.1800    0.0000 na        1 LIG      0.031400
     13 S          -0.6210   -1.9950    0.0000 ss        1 LIG      0.279200
     14 H           2.0340    3.2690   -0.0060 hc        1 LIG      0.068367
     15 H1          0.5710    2.9010    0.8750 hc        1 LIG      0.068367
     16 H2          0.5630    2.8990   -0.8720 hc        1 LIG      0.068367
     17 H3          3.5630    1.5820    0.0010 ha        1 LIG      0.174000
     18 H4          4.2130   -0.7420    0.0000 ha        1 LIG      0.175000
     19 H5          2.4980   -2.4580    0.0000 ha        1 LIG      0.172000
     20 H6         -1.4600    2.5560    0.0000 h5        1 LIG      0.129100
     21 H7         -3.7520   -0.7540    0.0000 hn        1 LIG      0.390700
@<TRIPOS>BOND
     1    1    2 1   
     2    1    3 ar  
     3    1    8 ar  
     4    3    4 ar  
     5    4    5 ar  
     6    5    6 ar  
     7    6    8 ar  
     8    6   13 1   
     9    7   10 ar  
    10    7   12 ar  
    11    7   13 1   
    12    8   10 1   
    13    9   10 ar  
    14    9   11 ar  
    15   11   12 ar  
    16    2   14 1   
    17    2   15 1   
    18    2   16 1   
    19    3   17 1   
    20    4   18 1   
    21    5   19 1   
    22    9   20 1   
    23   12   21 1   
@<TRIPOS>SUBSTRUCTURE
     1 LIG         1 TEMP              0 ****  ****    0 ROOT
