@<TRIPOS>MOLECULE
47V
   28    29     1     0     0
SMALL
bcc


@<TRIPOS>ATOM
      1 C           0.1250   -0.3350    0.1260 c         1 LIG      0.720700
      2 C1         -2.1050    0.4680   -0.0210 ca        1 LIG      0.111600
      3 C2         -3.0030    1.3830    0.5270 ca        1 LIG     -0.291800
      4 N          -4.8010    0.0170   -0.1160 nb        1 LIG     -0.686000
      5 C3         -4.3550    1.1190    0.4590 ca        1 LIG      0.415200
      6 C4         -3.9830   -0.8730   -0.6460 ca        1 LIG      0.415200
      7 C5         -2.6170   -0.6830   -0.6180 ca        1 LIG     -0.291800
      8 C6          2.5690   -1.0350    0.1290 cc        1 LIG      0.357000
      9 C7          2.3710   -2.5170    0.3160 c3        1 LIG     -0.157400
     10 O          -0.3020   -1.4640    0.2770 o         1 LIG     -0.597100
     11 C8          1.5780   -0.1010    0.0490 cd        1 LIG     -0.305900
     12 C9          2.2620    1.1880   -0.1300 cd        1 LIG     -0.244300
     13 O1          3.7460   -0.4120    0.0200 os        1 LIG     -0.360800
     14 C10         3.5750    0.9100   -0.1400 cc        1 LIG      0.257000
     15 C11         4.6810    1.9210   -0.3000 c3        1 LIG     -0.134400
     16 N1         -0.7310    0.7010    0.0230 n         1 LIG     -0.468100
     17 H          -2.6610    2.2460    0.9770 ha        1 LIG      0.160000
     18 H1         -5.0260    1.7910    0.8620 h4        1 LIG      0.021600
     19 H2         -4.3700   -1.7220   -1.0870 h4        1 LIG      0.021600
     20 H3         -1.9830   -1.3830   -1.0330 ha        1 LIG      0.160000
     21 H4          1.3250   -2.7330    0.3710 hc        1 LIG      0.077033
     22 H5          2.8480   -2.8290    1.2220 hc        1 LIG      0.077033
     23 H6          2.8000   -3.0410   -0.5120 hc        1 LIG      0.077033
     24 H7          1.8230    2.1170   -0.2280 ha        1 LIG      0.160000
     25 H8          4.2580    2.8980   -0.4090 hc        1 LIG      0.061700
     26 H9          5.2590    1.6830   -1.1690 hc        1 LIG      0.061700
     27 H10         5.3110    1.9000    0.5640 hc        1 LIG      0.061700
     28 H11        -0.3860    1.6220   -0.0210 hn        1 LIG      0.320500
@<TRIPOS>BOND
     1    1   10 2   
     2    2    3 ar  
     3    4    5 ar  
     4    5    3 ar  
     5    6    7 ar  
     6    6    4 ar  
     7    7    2 ar  
     8    8    9 1   
     9   11    1 1   
    10   11    8 ar  
    11   12   11 ar  
    12   13    8 ar  
    13   14   12 ar  
    14   14   13 ar  
    15   15   14 1   
    16   16    2 1   
    17   16    1 1   
    18    3   17 1   
    19    5   18 1   
    20    6   19 1   
    21    7   20 1   
    22    9   21 1   
    23    9   22 1   
    24    9   23 1   
    25   12   24 1   
    26   15   25 1   
    27   15   26 1   
    28   15   27 1   
    29   16   28 1   
@<TRIPOS>SUBSTRUCTURE
     1 LIG         1 TEMP              0 ****  ****    0 ROOT
