@<TRIPOS>MOLECULE
08M
   31    31     1     0     0
SMALL
bcc


@<TRIPOS>ATOM
      1 C           5.2830   -0.0230    0.1960 C.        1 LIG      0.934600
      2 OXT         5.9690    0.0140   -0.7980 O.3       1 LIG     -0.763300
      3 CA          3.9390    0.6590    0.2100 C.3       1 LIG     -0.071500
      4 N           3.8930    1.6710   -0.8540 N.4       1 LIG     -0.825600
      5 C1          2.8390   -0.3770   -0.0230 C.3       1 LIG     -0.089400
      6 C2          1.4700    0.2920    0.1150 C.3       1 LIG     -0.119400
      7 C3          0.3690   -0.7440   -0.1180 C.3       1 LIG      0.085000
      8 N1         -0.9420   -0.1030    0.0140 N.        1 LIG     -0.534900
      9 C4         -2.0660   -0.8280   -0.1510 C.        1 LIG      0.593600
     10 O          -1.9930   -2.0130   -0.4090 O.3       1 LIG     -0.688100
     11 C5         -3.3910   -0.1790   -0.0170 C.a       1 LIG      0.228500
     12 N2         -3.4740    1.1190    0.2600 N.b       1 LIG     -0.618000
     13 C6         -4.6540    1.6930    0.3780 C.a       1 LIG      0.280900
     14 C7         -5.8110    0.9450    0.2130 C.a       1 LIG      0.313900
     15 N3         -5.7350   -0.3450   -0.0620 N.b       1 LIG     -0.628000
     16 C8         -4.5560   -0.9270   -0.1870 C.a       1 LIG      0.344900
     17 O1          5.7150   -0.6770    1.2850 O.3       1 LIG     -0.763300
     18 HA          3.7880    1.1310    1.1580 H         1 LIG      0.084700
     19 H1          4.0370    1.2210   -1.7580 H         1 LIG      0.449133
     20 H2          4.6270    2.3620   -0.6980 H         1 LIG      0.449133
     21 H3          2.9830    2.1330   -0.8450 H         1 LIG      0.449133
     22 H           2.9280   -1.1600    0.7010 H         1 LIG      0.087200
     23 H4          2.9380   -0.7870   -1.0060 H         1 LIG      0.087200
     24 H5          1.3810    1.0750   -0.6090 H         1 LIG      0.053700
     25 H6          1.3710    0.7020    1.0990 H         1 LIG      0.053700
     26 H7          0.4570   -1.5270    0.6060 H         1 LIG      0.058200
     27 H8          0.4680   -1.1540   -1.1010 H         1 LIG      0.058200
     28 H9         -1.0020    0.8570    0.2230 H         1 LIG      0.339500
     29 H10        -4.7180    2.7000    0.5930 H         1 LIG      0.045100
     30 H11        -6.7340    1.3980    0.3050 H         1 LIG      0.045100
     31 H12        -4.4970   -1.9330   -0.4100 H         1 LIG      0.060100
@<TRIPOS>BOND
     1    1    3 1   
     2    1   17 1   
     3    2    1 1   
     4    3    5 1   
     5    4    3 1   
     6    5    6 1   
     7    6    7 1   
     8    7    8 1   
     9    8    9 1   
    10    9   11 1   
    11    9   10 2   
    12   11   16 ar  
    13   12   13 ar  
    14   12   11 ar  
    15   13   14 ar  
    16   14   15 ar  
    17   16   15 ar  
    18    3   18 1   
    19    4   19 1   
    20    4   20 1   
    21    4   21 1   
    22    5   22 1   
    23    5   23 1   
    24    6   24 1   
    25    6   25 1   
    26    7   26 1   
    27    7   27 1   
    28    8   28 1   
    29   13   29 1   
    30   14   30 1   
    31   16   31 1   
@<TRIPOS>SUBSTRUCTURE
     1 LIG         1 TEMP              0 ****  ****    0 ROOT
