@<TRIPOS>MOLECULE
VGG
   43    45     1     0     0
SMALL
bcc


@<TRIPOS>ATOM
      1 C          -2.8520    3.0300   -0.1060 C.3       1 LIG     -0.105433
      2 C1         -3.1170    1.5880    0.3310 C.3       1 LIG      0.099700
      3 C2         -3.2320    1.5300    1.8550 C.3       1 LIG     -0.105433
      4 C3         -4.4220    1.0950   -0.2980 C.3       1 LIG     -0.105433
      5 N          -2.0100    0.7340   -0.1080 N.a       1 LIG      0.002200
      6 N1         -0.8790    1.1560   -0.8180 N.c       1 LIG     -0.516100
      7 C4         -1.9020   -0.6080    0.1080 C.a       1 LIG      0.473800
      8 N2         -2.6570   -1.5210    0.7170 N.b       1 LIG     -0.741000
      9 C5         -2.2790   -2.7790    0.7660 C.a       1 LIG      0.689900
     10 N3         -1.1500   -3.2060    0.2280 N.b       1 LIG     -0.797000
     11 C6         -0.3290   -2.3720   -0.4010 C.a       1 LIG      0.747200
     12 N4          0.8480   -2.8270   -0.9610 N.h       1 LIG     -0.941500
     13 C7         -0.6890   -1.0130   -0.4820 C.a       1 LIG     -0.492500
     14 C8         -0.0980    0.1390   -1.0440 C.d       1 LIG      0.377900
     15 C9          1.2170    0.1840   -1.7790 C.3       1 LIG     -0.051400
     16 C10         2.3100    0.6030   -0.8300 C.a       1 LIG     -0.085300
     17 C11         3.0070   -0.3530   -0.1140 C.a       1 LIG     -0.149000
     18 C12         2.6180    1.9420   -0.6790 C.a       1 LIG     -0.119000
     19 C13         3.6210    2.3260    0.1920 C.a       1 LIG     -0.121000
     20 C14         4.3140    1.3710    0.9130 C.a       1 LIG     -0.131000
     21 C15         4.0090    0.0310    0.7570 C.a       1 LIG     -0.074300
     22 C16         4.7690   -1.0100    1.5370 C.3       1 LIG     -0.055800
     23 H          -3.6600    3.6540    0.2140 H         1 LIG      0.051589
     24 H1         -2.7710    3.0700   -1.1720 H         1 LIG      0.051589
     25 H2         -1.9400    3.3740    0.3340 H         1 LIG      0.051589
     26 H3         -4.0400    2.1540    2.1760 H         1 LIG      0.051589
     27 H4         -2.3200    1.8750    2.2950 H         1 LIG      0.051589
     28 H5         -3.4170    0.5210    2.1610 H         1 LIG      0.051589
     29 H6         -5.2300    1.7190    0.0220 H         1 LIG      0.051589
     30 H7         -4.6070    0.0860    0.0080 H         1 LIG      0.051589
     31 H8         -4.3420    1.1350   -1.3640 H         1 LIG      0.051589
     32 H9         -2.8890   -3.4610    1.2440 H         1 LIG      0.050100
     33 H10         1.0870   -3.7800   -0.8970 H         1 LIG      0.430800
     34 H11         1.4480   -2.1990   -1.4240 H         1 LIG      0.430800
     35 H12         1.1530    0.8880   -2.5820 H         1 LIG      0.071700
     36 H13         1.4390   -0.7860   -2.1720 H         1 LIG      0.071700
     37 H14         2.7790   -1.3530   -0.2300 H         1 LIG      0.131000
     38 H15         2.1000    2.6550   -1.2160 H         1 LIG      0.146000
     39 H16         3.8520    3.3250    0.3040 H         1 LIG      0.135000
     40 H17         5.0590    1.6580    1.5670 H         1 LIG      0.133000
     41 H18         4.3980   -1.9830    1.2890 H         1 LIG      0.045367
     42 H19         4.6400   -0.8360    2.5850 H         1 LIG      0.045367
     43 H20         5.8090   -0.9510    1.2910 H         1 LIG      0.045367
@<TRIPOS>BOND
     1    1    2 1   
     2    2    3 1   
     3    2    4 1   
     4    2    5 1   
     5    5    6 1   
     6    5    7 1   
     7    6   14 2   
     8    7    8 ar  
     9    7   13 ar  
    10    8    9 ar  
    11    9   10 ar  
    12   10   11 ar  
    13   11   12 1   
    14   11   13 ar  
    15   13   14 1   
    16   14   15 1   
    17   15   16 1   
    18   16   17 ar  
    19   16   18 ar  
    20   17   21 ar  
    21   18   19 ar  
    22   19   20 ar  
    23   20   21 ar  
    24   21   22 1   
    25    1   23 1   
    26    1   24 1   
    27    1   25 1   
    28    3   26 1   
    29    3   27 1   
    30    3   28 1   
    31    4   29 1   
    32    4   30 1   
    33    4   31 1   
    34    9   32 1   
    35   12   33 1   
    36   12   34 1   
    37   15   35 1   
    38   15   36 1   
    39   17   37 1   
    40   18   38 1   
    41   19   39 1   
    42   20   40 1   
    43   22   41 1   
    44   22   42 1   
    45   22   43 1   
@<TRIPOS>SUBSTRUCTURE
     1 LIG         1 TEMP              0 ****  ****    0 ROOT
