@<TRIPOS>MOLECULE
IFL
   22    22     1     0     0
SMALL
bcc


@<TRIPOS>ATOM
      1 O          -2.2670    0.1500    0.4730 O.h       1 LIG     -0.595800
      2 C          -0.9570   -0.2660    0.0820 C.3       1 LIG      0.156100
      3 C1         -0.6150    0.3270   -1.2850 C.3       1 LIG      0.044100
      4 O1         -1.3950   -0.3210   -2.2920 O.h       1 LIG     -0.602800
      5 C2          0.8440    0.1290   -1.5810 C.        1 LIG      0.665500
      6 N           1.7510   -0.1620   -0.6480 N.        1 LIG     -0.557900
      7 C3          1.4370   -0.3710    0.7590 C.3       1 LIG      0.093000
      8 C4          0.0750    0.2340    1.1000 C.3       1 LIG     -0.118700
      9 C5         -0.3410   -0.1960    2.5080 C.3       1 LIG      0.133400
     10 O2          0.6260    0.2650    3.4530 O.h       1 LIG     -0.588800
     11 O3          1.2170    0.2410   -2.7290 O.3       1 LIG     -0.648500
     12 H          -2.9140   -0.1690   -0.1750 H         1 LIG      0.426000
     13 H1         -0.9360   -1.3350    0.0360 H         1 LIG      0.056700
     14 H2         -0.8320    1.3750   -1.2770 H         1 LIG      0.080700
     15 H3         -1.1940   -1.2700   -2.2960 H         1 LIG      0.439000
     16 H4          2.6920   -0.2400   -0.9270 H         1 LIG      0.326500
     17 H5          2.1890    0.0950    1.3610 H         1 LIG      0.042200
     18 H6          1.4070   -1.4230    0.9540 H         1 LIG      0.042200
     19 H7          0.1330    1.3020    1.0640 H         1 LIG      0.090700
     20 H8         -0.4010   -1.2630    2.5510 H         1 LIG      0.062700
     21 H9         -1.2960    0.2260    2.7410 H         1 LIG      0.062700
     22 H10         1.4920   -0.1170    3.2420 H         1 LIG      0.392000
@<TRIPOS>BOND
     1    1    2 1   
     2    2    3 1   
     3    2    8 1   
     4    3    4 1   
     5    3    5 1   
     6    5    6 1   
     7    5   11 2   
     8    6    7 1   
     9    7    8 1   
    10    8    9 1   
    11    9   10 1   
    12    1   12 1   
    13    2   13 1   
    14    3   14 1   
    15    4   15 1   
    16    6   16 1   
    17    7   17 1   
    18    7   18 1   
    19    8   19 1   
    20    9   20 1   
    21    9   21 1   
    22   10   22 1   
@<TRIPOS>SUBSTRUCTURE
     1 LIG         1 TEMP              0 ****  ****    0 ROOT
