@<TRIPOS>MOLECULE
68P
   46    48     1     0     0
SMALL
bcc


@<TRIPOS>ATOM
      1 C          -0.4860   -1.0200   -0.2800 C.a       1 LIG     -0.129300
      2 C1          2.1600   -0.2560    1.1810 C.a       1 LIG     -0.102000
      3 C2         -0.3760   -1.9900   -1.2580 C.a       1 LIG     -0.093500
      4 C3          3.5180   -0.1470    1.3980 C.a       1 LIG     -0.084000
      5 C4         -1.8150   -2.5060    1.0480 C.a       1 LIG     -0.167500
      6 C5         -1.6960   -3.4820    0.0730 C.a       1 LIG      0.143900
      7 C6         -5.0150    3.5850    0.5740 C.3       1 LIG      0.081600
      8 C7          5.7320    0.6240    0.6800 C.g       1 LIG      0.212800
      9 F          -2.2910   -4.6830    0.2430 F.        1 LIG     -0.124900
     10 O           0.2670    0.6310   -1.8740 O.2       1 LIG     -0.440600
     11 N          -4.2750    2.4150    0.0820 N.4       1 LIG     -0.680400
     12 N1          6.8510    0.7160    0.8540 N.1       1 LIG     -0.320800
     13 C8          0.1730    0.3210   -0.4720 C.3       1 LIG      0.261400
     14 C9         -0.6220    1.4070    0.2570 C.3       1 LIG     -0.072400
     15 C10         1.5940    0.2810    0.0420 C.a       1 LIG     -0.104300
     16 C11         2.3850    0.9380   -0.8900 C.a       1 LIG     -0.117300
     17 C12        -2.0800    1.3670   -0.2040 C.3       1 LIG     -0.109400
     18 C13         1.4760    1.4010   -2.0040 C.3       1 LIG      0.174700
     19 C14        -2.8750    2.4530    0.5240 C.3       1 LIG      0.106800
     20 C15         3.7420    1.0570   -0.6840 C.a       1 LIG     -0.066000
     21 C16        -1.2060   -1.2780    0.8730 C.a       1 LIG     -0.093500
     22 C17         4.3210    0.5070    0.4610 C.a       1 LIG      0.010000
     23 C18        -0.9800   -3.2210   -1.0830 C.a       1 LIG     -0.167500
     24 C19        -4.9260    1.1660    0.5010 C.3       1 LIG      0.081600
     25 H           1.5660   -0.7400    1.8720 H         1 LIG      0.143000
     26 H1          0.1580   -1.7950   -2.1200 H         1 LIG      0.144000
     27 H2          3.9390   -0.5480    2.2510 H         1 LIG      0.159000
     28 H3         -2.3580   -2.6960    1.9050 H         1 LIG      0.160500
     29 H4         -4.5210    4.4790    0.2560 H         1 LIG      0.106033
     30 H5         -5.0530    3.5590    1.6430 H         1 LIG      0.106033
     31 H6         -6.0100    3.5680    0.1820 H         1 LIG      0.106033
     32 H7         -4.2820    2.4460   -0.9380 H         1 LIG      0.452800
     33 H8         -0.2030    2.3660    0.0340 H         1 LIG      0.063200
     34 H9         -0.5770    1.2350    1.3120 H         1 LIG      0.063200
     35 H10        -2.4990    0.4080    0.0200 H         1 LIG      0.080700
     36 H11        -2.1250    1.5390   -1.2590 H         1 LIG      0.080700
     37 H12         1.2650    2.4450   -1.9020 H         1 LIG      0.073200
     38 H13         1.9290    1.2620   -2.9630 H         1 LIG      0.073200
     39 H14        -2.8290    2.2810    1.5790 H         1 LIG      0.102200
     40 H15        -2.4560    3.4120    0.3000 H         1 LIG      0.102200
     41 H16         4.3290    1.5510   -1.3740 H         1 LIG      0.162000
     42 H17        -1.2880   -0.5530    1.6030 H         1 LIG      0.144000
     43 H18        -0.8970   -3.9450   -1.8140 H         1 LIG      0.160500
     44 H19        -4.9320    1.1080    1.5690 H         1 LIG      0.106033
     45 H20        -4.3880    0.3320    0.1020 H         1 LIG      0.106033
     46 H21        -5.9320    1.1490    0.1370 H         1 LIG      0.106033
@<TRIPOS>BOND
     1    1    3 ar  
     2    1   13 1   
     3    2   15 ar  
     4    4    2 ar  
     5    4   22 ar  
     6    5    6 ar  
     7    5   21 ar  
     8    6   23 ar  
     9    7   11 1   
    10    8   22 1   
    11    9    6 1   
    12   10   18 1   
    13   11   19 1   
    14   12    8 3   
    15   13   14 1   
    16   13   10 1   
    17   14   17 1   
    18   15   13 1   
    19   15   16 ar  
    20   16   18 1   
    21   17   19 1   
    22   20   16 ar  
    23   21    1 ar  
    24   22   20 ar  
    25   23    3 ar  
    26   24   11 1   
    27    2   25 1   
    28    3   26 1   
    29    4   27 1   
    30    5   28 1   
    31    7   29 1   
    32    7   30 1   
    33    7   31 1   
    34   11   32 1   
    35   14   33 1   
    36   14   34 1   
    37   17   35 1   
    38   17   36 1   
    39   18   37 1   
    40   18   38 1   
    41   19   39 1   
    42   19   40 1   
    43   20   41 1   
    44   21   42 1   
    45   23   43 1   
    46   24   44 1   
    47   24   45 1   
    48   24   46 1   
@<TRIPOS>SUBSTRUCTURE
     1 LIG         1 TEMP              0 ****  ****    0 ROOT
