@<TRIPOS>MOLECULE
SGD
   24    24     1     0     0
SMALL
bcc


@<TRIPOS>ATOM
      1 C          -0.6980   -1.5760    0.2630 C.3       1 LIG      0.300900
      2 O           0.5370   -0.9660    0.6410 O.2       1 LIG     -0.432600
      3 C1         -1.8510   -0.6100    0.5480 C.3       1 LIG      0.060100
      4 O1         -3.0820   -1.1940    0.1170 O.h       1 LIG     -0.566800
      5 C2         -1.6110    0.6980   -0.2130 C.3       1 LIG      0.071100
      6 O2         -2.6450    1.6320    0.1050 O.h       1 LIG     -0.564800
      7 C3         -0.2540    1.2750    0.2000 C.3       1 LIG      0.079100
      8 O3          0.0130    2.4570   -0.5570 O.h       1 LIG     -0.573800
      9 C4          0.8370    0.2360   -0.0720 C.3       1 LIG      0.104100
     10 C5          2.1890    0.7820    0.3940 C.3       1 LIG      0.003700
     11 S           3.5010   -0.3860   -0.0600 S.h       1 LIG     -0.365900
     12 O4         -0.6700   -1.8850   -1.1320 O.h       1 LIG     -0.605800
     13 H          -0.8380   -2.4760    0.8250 H         1 LIG      0.127700
     14 H1         -1.9030   -0.4120    1.5980 H         1 LIG      0.094700
     15 H2         -3.0380   -1.3750   -0.8350 H         1 LIG      0.415000
     16 H3         -1.6170    0.5100   -1.2660 H         1 LIG      0.074700
     17 H4         -2.6420    1.8050    1.0590 H         1 LIG      0.411000
     18 H5         -0.2680    1.5180    1.2420 H         1 LIG      0.089700
     19 H6          0.0260    2.2400   -1.5020 H         1 LIG      0.411000
     20 H7          0.8790    0.0280   -1.1210 H         1 LIG      0.053700
     21 H8          2.1760    0.9080    1.4560 H         1 LIG      0.096700
     22 H9          2.3730    1.7260   -0.0750 H         1 LIG      0.096700
     23 H10         3.2660   -1.5860    0.5360 H         1 LIG      0.214800
     24 H11        -0.5430   -1.0690   -1.6410 H         1 LIG      0.405000
@<TRIPOS>BOND
     1    1    3 1   
     2    1    2 1   
     3    2    9 1   
     4    3    5 1   
     5    4    3 1   
     6    5    6 1   
     7    5    7 1   
     8    7    8 1   
     9    9    7 1   
    10    9   10 1   
    11   11   10 1   
    12   12    1 1   
    13    1   13 1   
    14    3   14 1   
    15    4   15 1   
    16    5   16 1   
    17    6   17 1   
    18    7   18 1   
    19    8   19 1   
    20    9   20 1   
    21   10   21 1   
    22   10   22 1   
    23   11   23 1   
    24   12   24 1   
@<TRIPOS>SUBSTRUCTURE
     1 LIG         1 TEMP              0 ****  ****    0 ROOT
