@<TRIPOS>MOLECULE
PEM
   44    45     1     0     0
SMALL
bcc


@<TRIPOS>ATOM
      1 C           1.1230   -4.3800    9.1160 C.a       1 LIG     -0.160600
      2 C1          1.5690   -4.6630   10.3900 C.a       1 LIG     -0.080000
      3 C2          1.6480   -3.6280   11.3210 C.a       1 LIG     -0.130500
      4 C3          1.2790   -2.3330   10.9570 C.a       1 LIG      0.025400
      5 C4          0.8310   -2.0730    9.6620 C.a       1 LIG     -0.130500
      6 C5          0.7520   -3.1090    8.7310 C.a       1 LIG     -0.080000
      7 Cl          1.3770   -1.0550   12.1060 C.l       1 LIG     -0.122400
      8 C6          1.0390   -5.4830    8.1240 C.        1 LIG      0.667700
      9 O           1.7710   -6.4620    8.2510 O.3       1 LIG     -0.639100
     10 N           0.0960   -5.3280    7.1150 N.        1 LIG     -0.541900
     11 C7         -0.1210   -6.3190    6.0960 C.3       1 LIG      0.087000
     12 C8          0.7680   -6.0960    4.8670 C.3       1 LIG     -0.056100
     13 C9          0.1830   -2.2950    3.0000 C.a       1 LIG      0.143100
     14 C10        -0.5780   -3.3880    2.5960 C.a       1 LIG     -0.146500
     15 C11        -0.3870   -4.6280    3.2050 C.a       1 LIG     -0.129000
     16 C12         0.5640   -4.7700    4.2160 C.a       1 LIG     -0.130300
     17 C13         1.3240   -3.6710    4.6170 C.a       1 LIG     -0.129000
     18 C14         1.1330   -2.4310    4.0080 C.a       1 LIG     -0.146500
     19 O1         -0.0030   -1.0790    2.4020 O.2       1 LIG     -0.362900
     20 C15         0.2500    0.0730    3.2060 C.3       1 LIG      0.037800
     21 C16        -0.6750    0.0160    4.4180 C.3       1 LIG     -0.083600
     22 C17         0.0060    1.3110    2.3470 C.3       1 LIG     -0.083600
     23 C18         1.7120   -0.0300    3.6220 C.        1 LIG      0.900600
     24 O2          1.9580    0.4810    4.8550 O.3       1 LIG     -0.833800
     25 O3          2.5950   -0.5220    2.9300 O.3       1 LIG     -0.833800
     26 H           1.8400   -5.6240   10.6500 H         1 LIG      0.168000
     27 H1          1.9790   -3.8200   12.2790 H         1 LIG      0.172000
     28 H2          0.5580   -1.1150    9.3930 H         1 LIG      0.172000
     29 H3          0.4210   -2.9270    7.7700 H         1 LIG      0.168000
     30 H4         -0.4460   -4.5060    7.0970 H         1 LIG      0.323500
     31 H5         -1.1460   -6.2800    5.7910 H         1 LIG      0.052200
     32 H6          0.1280   -7.2740    6.5100 H         1 LIG      0.052200
     33 H7          0.5530   -6.8610    4.1510 H         1 LIG      0.044700
     34 H8          1.7830   -6.1280    5.2040 H         1 LIG      0.044700
     35 H9         -1.2810   -3.2810    1.8480 H         1 LIG      0.161500
     36 H10        -0.9490   -5.4410    2.9080 H         1 LIG      0.120000
     37 H11         2.0280   -3.7760    5.3640 H         1 LIG      0.120000
     38 H12         1.6940   -1.6170    4.3040 H         1 LIG      0.161500
     39 H13        -1.6920    0.0900    4.0940 H         1 LIG      0.032700
     40 H14        -0.4500    0.8290    5.0770 H         1 LIG      0.032700
     41 H15        -0.5320   -0.9110    4.9330 H         1 LIG      0.032700
     42 H16        -1.0270    1.3560    2.0710 H         1 LIG      0.032700
     43 H17         0.6090    1.2570    1.4650 H         1 LIG      0.032700
     44 H18         0.2650    2.1880    2.9030 H         1 LIG      0.032700
@<TRIPOS>BOND
     1    1    2 ar  
     2    1    6 ar  
     3    1    8 1   
     4    2    3 ar  
     5    3    4 ar  
     6    4    5 ar  
     7    4    7 1   
     8    5    6 ar  
     9    8    9 2   
    10    8   10 1   
    11   10   11 1   
    12   11   12 1   
    13   12   16 1   
    14   13   14 ar  
    15   13   18 ar  
    16   13   19 1   
    17   14   15 ar  
    18   15   16 ar  
    19   16   17 ar  
    20   17   18 ar  
    21   19   20 1   
    22   20   21 1   
    23   20   22 1   
    24   20   23 1   
    25   23   24 1   
    26   23   25 1   
    27    2   26 1   
    28    3   27 1   
    29    5   28 1   
    30    6   29 1   
    31   10   30 1   
    32   11   31 1   
    33   11   32 1   
    34   12   33 1   
    35   12   34 1   
    36   14   35 1   
    37   15   36 1   
    38   17   37 1   
    39   18   38 1   
    40   21   39 1   
    41   21   40 1   
    42   21   41 1   
    43   22   42 1   
    44   22   43 1   
    45   22   44 1   
@<TRIPOS>SUBSTRUCTURE
     1 LIG         1 TEMP              0 ****  ****    0 ROOT
