@<TRIPOS>MOLECULE
A6A
   38    40     1     0     0
SMALL
bcc


@<TRIPOS>ATOM
      1 P           4.7640    0.9800    0.1200 P.5       1 LIG      1.345900
      2 N          -5.8120    0.9920    0.1100 N.b       1 LIG     -0.805000
      3 C          -5.6250   -0.2230    0.5930 C.a       1 LIG      0.636900
      4 N1         -4.4300   -0.7650    0.7010 N.b       1 LIG     -0.704000
      5 C1         -3.3460   -0.0950    0.3210 C.a       1 LIG      0.426800
      6 C2         -3.4920    1.2020   -0.1990 C.a       1 LIG     -0.203200
      7 C3         -4.7880    1.7360   -0.2950 C.a       1 LIG      0.692200
      8 N2         -4.9940    3.0090   -0.7990 N.h       1 LIG     -0.929500
      9 N3         -2.2510    1.6520   -0.5030 N.c       1 LIG     -0.605100
     10 C4         -1.3740    0.7360   -0.2100 C.d       1 LIG      0.464700
     11 N4         -2.0000   -0.3610    0.3020 N.a       1 LIG     -0.209000
     12 C5         -1.3550   -1.5980    0.7500 C.3       1 LIG      0.000000
     13 C6         -0.7380   -2.3180   -0.4530 C.3       1 LIG      0.057100
     14 O          -0.1670   -3.5570   -0.0270 O.h       1 LIG     -0.657800
     15 C7          0.3520   -1.4310   -1.0620 C.3       1 LIG      0.274100
     16 O1          0.9840   -2.1240   -2.1400 O.h       1 LIG     -0.980800
     17 C8          1.3910   -1.1030    0.0140 C.3       1 LIG      0.039100
     18 O2          0.7470   -0.4620    1.1170 O.2       1 LIG     -0.429600
     19 C9          2.4520   -0.1680   -0.5700 C.3       1 LIG      0.203400
     20 O3          3.4830    0.0450    0.3960 O.2       1 LIG     -0.588200
     21 C10        -0.2500   -1.2630    1.7550 C.3       1 LIG      0.134400
     22 O4          5.4520    0.5240   -1.1080 O.3       1 LIG     -0.734167
     23 O5          4.2850    2.5060   -0.0690 O.3       1 LIG     -0.734167
     24 O6          5.7760    0.8870    1.3680 O.3       1 LIG     -0.734167
     25 H          -6.4470   -0.7680    0.8970 H         1 LIG      0.027100
     26 H1         -4.2280    3.5510   -1.0960 H         1 LIG      0.404800
     27 H2         -5.9070    3.3720   -0.8600 H         1 LIG      0.404800
     28 H3         -0.3550    0.8270   -0.3450 H         1 LIG      0.126800
     29 H4         -2.0840   -2.2300    1.2130 H         1 LIG      0.071700
     30 H5         -1.4940   -2.5130   -1.1850 H         1 LIG      0.016700
     31 H6          0.5190   -3.3850    0.6370 H         1 LIG      0.445000
     32 H7         -0.0840   -0.5260   -1.4300 H         1 LIG     -0.082300
     33 H8          1.3800   -2.9450   -1.8090 H         1 LIG      0.435000
     34 H9          1.8570   -2.0070    0.3480 H         1 LIG      0.046700
     35 H10         2.0010    0.7690   -0.8230 H         1 LIG      0.032200
     36 H11         2.8730   -0.6110   -1.4490 H         1 LIG      0.032200
     37 H12         0.1940   -2.1690    2.1120 H         1 LIG      0.039700
     38 H13        -0.6680   -0.7230    2.5790 H         1 LIG      0.039700
@<TRIPOS>BOND
     1    1   20 1   
     2    1   23 1   
     3    1   24 1   
     4    2    3 ar  
     5    4    3 ar  
     6    5    4 ar  
     7    6    5 ar  
     8    6    7 ar  
     9    7    2 ar  
    10    8    7 1   
    11    9    6 1   
    12   10    9 2   
    13   10   11 1   
    14   11    5 1   
    15   12   11 1   
    16   12   21 1   
    17   13   12 1   
    18   14   13 1   
    19   15   13 1   
    20   15   17 1   
    21   16   15 1   
    22   17   18 1   
    23   18   21 1   
    24   19   17 1   
    25   20   19 1   
    26   22    1 1   
    27    3   25 1   
    28    8   26 1   
    29    8   27 1   
    30   10   28 1   
    31   12   29 1   
    32   13   30 1   
    33   14   31 1   
    34   15   32 1   
    35   16   33 1   
    36   17   34 1   
    37   19   35 1   
    38   19   36 1   
    39   21   37 1   
    40   21   38 1   
@<TRIPOS>SUBSTRUCTURE
     1 LIG         1 TEMP              0 ****  ****    0 ROOT
