@<TRIPOS>MOLECULE
TCH
   79    82     1     0     0
SMALL
bcc


@<TRIPOS>ATOM
      1 C          -6.5540    1.7700    0.8200 c3        1 LIG     -0.071400
      2 C1         -6.9550    1.7540   -0.6560 c3        1 LIG     -0.111400
      3 C2         -7.8610    0.5510   -0.9260 c3        1 LIG      0.138100
      4 O          -8.2340    0.5350   -2.3050 oh        1 LIG     -0.596800
      5 C3         -7.1130   -0.7390   -0.5850 c3        1 LIG     -0.104400
      6 C4         -6.7110   -0.7220    0.8920 c3        1 LIG     -0.050700
      7 C5         -5.9640   -2.0130    1.2300 c3        1 LIG     -0.105400
      8 C6         -4.7130   -2.1240    0.3560 c3        1 LIG      0.146100
      9 O1         -5.0930   -2.1390   -1.0210 oh        1 LIG     -0.594800
     10 C7         -3.8000   -0.9260    0.6210 c3        1 LIG     -0.084700
     11 C8         -4.5520    0.3680    0.2740 c3        1 LIG     -0.044700
     12 C9         -5.8010    0.4800    1.1570 c3        1 LIG     -0.037000
     13 C10        -3.6700    1.5970    0.4620 c3        1 LIG     -0.110400
     14 C11        -2.3640    1.4770   -0.3420 c3        1 LIG      0.150100
     15 O2         -2.6580    1.3930   -1.7380 oh        1 LIG     -0.592800
     16 C12        -1.6680    0.2100    0.1150 c3        1 LIG     -0.074000
     17 C13        -2.5760   -0.9870   -0.2750 c3        1 LIG     -0.063700
     18 C14        -1.6380   -2.1770   -0.0450 c3        1 LIG     -0.073400
     19 C15        -0.2870   -1.6680   -0.6190 c3        1 LIG     -0.082400
     20 C16        -0.3420   -0.1210   -0.5620 c3        1 LIG     -0.051700
     21 C17        -1.4790    0.2430    1.6330 c3        1 LIG     -0.083100
     22 C18        -5.3860    0.5000    2.6290 c3        1 LIG     -0.089100
     23 O3         10.0050    0.6900   -1.2470 o         1 LIG     -0.748200
     24 C19         0.8260    0.4210    0.2650 c3        1 LIG     -0.054700
     25 C20         0.7330    1.9460    0.3400 c3        1 LIG     -0.096100
     26 C21         2.1470    0.0210   -0.3950 c3        1 LIG     -0.076400
     27 C22         3.3130    0.4540    0.4950 c3        1 LIG     -0.161400
     28 C23         4.6150    0.0610   -0.1550 c         1 LIG      0.643100
     29 N           5.7840    0.3440    0.4520 n         1 LIG     -0.542900
     30 O4          4.6090   -0.5090   -1.2250 o         1 LIG     -0.629100
     31 C24         7.0490   -0.0380   -0.1800 c3        1 LIG      0.116000
     32 C25         8.2150    0.3950    0.7110 c3        1 LIG     -0.309600
     33 S           9.7820   -0.0790   -0.0720 s6        1 LIG      1.430800
     34 O5          9.9270   -1.4920   -0.0830 o         1 LIG     -0.748200
     35 O6         10.8520    0.4010    0.8980 o         1 LIG     -0.748200
     36 H          -7.4320    1.8400    1.4280 hc        1 LIG      0.044200
     37 H1         -5.9220    2.6120    1.0090 hc        1 LIG      0.044200
     38 H2         -6.0770    1.6830   -1.2630 hc        1 LIG      0.049700
     39 H3         -7.4800    2.6560   -0.8920 hc        1 LIG      0.049700
     40 H4         -8.7400    0.6240   -0.3200 h1        1 LIG      0.073700
     41 H5         -7.4380    0.4690   -2.8550 ho        1 LIG      0.397000
     42 H6         -6.2350   -0.8130   -1.1920 hc        1 LIG      0.047200
     43 H7         -7.7490   -1.5790   -0.7710 hc        1 LIG      0.047200
     44 H8         -7.5870   -0.6470    1.5020 hc        1 LIG      0.046700
     45 H9         -6.6020   -2.8520    1.0470 hc        1 LIG      0.051700
     46 H10        -5.6780   -1.9990    2.2610 hc        1 LIG      0.051700
     47 H11        -4.1920   -3.0290    0.5910 h1        1 LIG      0.071700
     48 H12        -5.5650   -1.3190   -1.2350 ho        1 LIG      0.395000
     49 H13        -3.5090   -0.9460    1.6500 hc        1 LIG      0.066700
     50 H14        -4.8350    0.3270   -0.7570 hc        1 LIG      0.035700
     51 H15        -3.4320    1.6990    1.5000 hc        1 LIG      0.052200
     52 H16        -4.2060    2.4540    0.1100 hc        1 LIG      0.052200
     53 H17        -1.7400    2.3320   -0.1820 h1        1 LIG      0.078700
     54 H18        -3.2240    0.6230   -1.9030 ho        1 LIG      0.395000
     55 H19        -2.9680   -1.0220   -1.2700 hc        1 LIG      0.039700
     56 H20        -1.9790   -3.0430   -0.5720 hc        1 LIG      0.047200
     57 H21        -1.5760   -2.4750    0.9810 hc        1 LIG      0.047200
     58 H22        -0.1670   -1.9970   -1.6300 hc        1 LIG      0.051700
     59 H23         0.5410   -2.0470   -0.0570 hc        1 LIG      0.051700
     60 H24        -0.2690    0.3180   -1.5350 hc        1 LIG      0.059700
     61 H25        -2.4110    0.4750    2.1030 hc        1 LIG      0.037700
     62 H26        -0.7560    0.9900    1.8860 hc        1 LIG      0.037700
     63 H27        -1.1380   -0.7130    1.9710 hc        1 LIG      0.037700
     64 H28        -4.7500    1.3420    2.8090 hc        1 LIG      0.036033
     65 H29        -4.8590   -0.4010    2.8630 hc        1 LIG      0.036033
     66 H30        -6.2580    0.5740    3.2440 hc        1 LIG      0.036033
     67 H31         0.7840    0.0130    1.2530 hc        1 LIG      0.046700
     68 H32         0.7750    2.3550   -0.6480 hc        1 LIG      0.036033
     69 H33         1.5500    2.3250    0.9180 hc        1 LIG      0.036033
     70 H34        -0.1910    2.2250    0.8020 hc        1 LIG      0.036033
     71 H35         2.2290    0.5000   -1.3480 hc        1 LIG      0.052200
     72 H36         2.1730   -1.0410   -0.5260 hc        1 LIG      0.052200
     73 H37         3.2310   -0.0250    1.4480 hc        1 LIG      0.058700
     74 H38         3.2860    1.5160    0.6260 hc        1 LIG      0.058700
     75 H39         5.7880    0.8080    1.3210 hn        1 LIG      0.292500
     76 H40         7.1310    0.4420   -1.1330 h1        1 LIG      0.073200
     77 H41         7.0760   -1.0990   -0.3120 h1        1 LIG      0.073200
     78 H42         8.1330   -0.0850    1.6640 h1        1 LIG      0.064700
     79 H43         8.1880    1.4560    0.8430 h1        1 LIG      0.064700
@<TRIPOS>BOND
     1    1    2 1   
     2    2    3 1   
     3    3    4 1   
     4    5    3 1   
     5    6    5 1   
     6    7    6 1   
     7    8    7 1   
     8    8    9 1   
     9   10    8 1   
    10   10   11 1   
    11   11   12 1   
    12   12    1 1   
    13   12    6 1   
    14   13   11 1   
    15   14   13 1   
    16   14   15 1   
    17   16   14 1   
    18   16   17 1   
    19   17   10 1   
    20   18   17 1   
    21   19   18 1   
    22   19   20 1   
    23   20   16 1   
    24   21   16 1   
    25   22   12 1   
    26   23   33 1   
    27   24   20 1   
    28   25   24 1   
    29   26   24 1   
    30   27   26 1   
    31   27   28 1   
    32   28   30 2   
    33   29   28 1   
    34   29   31 1   
    35   31   32 1   
    36   32   33 1   
    37   33   35 1   
    38   34   33 1   
    39    1   36 1   
    40    1   37 1   
    41    2   38 1   
    42    2   39 1   
    43    3   40 1   
    44    4   41 1   
    45    5   42 1   
    46    5   43 1   
    47    6   44 1   
    48    7   45 1   
    49    7   46 1   
    50    8   47 1   
    51    9   48 1   
    52   10   49 1   
    53   11   50 1   
    54   13   51 1   
    55   13   52 1   
    56   14   53 1   
    57   15   54 1   
    58   17   55 1   
    59   18   56 1   
    60   18   57 1   
    61   19   58 1   
    62   19   59 1   
    63   20   60 1   
    64   21   61 1   
    65   21   62 1   
    66   21   63 1   
    67   22   64 1   
    68   22   65 1   
    69   22   66 1   
    70   24   67 1   
    71   25   68 1   
    72   25   69 1   
    73   25   70 1   
    74   26   71 1   
    75   26   72 1   
    76   27   73 1   
    77   27   74 1   
    78   29   75 1   
    79   31   76 1   
    80   31   77 1   
    81   32   78 1   
    82   32   79 1   
@<TRIPOS>SUBSTRUCTURE
     1 LIG         1 TEMP              0 ****  ****    0 ROOT
