@<TRIPOS>MOLECULE
7OJ
   43    46     1     0     0
SMALL
bcc


@<TRIPOS>ATOM
      1 N          -6.5010   -1.1600    0.3020 N.c       1 LIG     -0.618000
      2 C          -5.9710   -0.0030    0.7140 C.c       1 LIG      0.397500
      3 C1         -3.8860   -0.5980   -0.2310 C.d       1 LIG      0.061400
      4 C2         -5.5390    1.9520    1.5540 C.d       1 LIG      0.528200
      5 C3         -6.4000   -3.3310   -0.8130 C.3       1 LIG     -0.160400
      6 C4         -0.8910    1.2960   -1.6850 C.3       1 LIG      0.377600
      7 C5          0.7410   -0.3030    1.0050 C.        1 LIG      0.671700
      8 C6          3.1530   -0.6580    0.4990 C.a       1 LIG     -0.034000
      9 C7          4.4270   -0.1660    0.3070 C.a       1 LIG     -0.076900
     10 C8          3.6380    2.0680    0.7200 C.a       1 LIG     -0.176000
     11 C9          2.3580    1.5870    0.9040 C.a       1 LIG     -0.064000
     12 C10         2.1080    0.2180    0.7990 C.a       1 LIG     -0.157600
     13 C11         4.6710    1.1950    0.4170 C.a       1 LIG      0.178900
     14 C12        -4.4340   -1.7690   -0.6460 C.c       1 LIG     -0.301300
     15 C13        -5.7790   -2.0350   -0.3600 C.d       1 LIG      0.467600
     16 C14        -2.3560    0.9940   -1.3610 C.3       1 LIG     -0.123400
     17 C15        -1.6880   -0.0760    0.7950 C.3       1 LIG      0.073000
     18 C16        -0.1200    1.5210   -0.3810 C.3       1 LIG      0.043000
     19 C17        -2.4420   -0.2830   -0.5230 C.3       1 LIG     -0.046400
     20 N1         -6.4750    1.0280    1.3840 N.d       1 LIG     -0.350300
     21 N2         -4.4170    1.5510    1.0060 N.c       1 LIG     -0.595100
     22 N3         -4.6610    0.2870    0.4510 N.a       1 LIG      0.013200
     23 N4         -0.3170    0.3560    0.4920 N.        1 LIG     -0.449800
     24 O           0.5690   -1.3270    1.6380 O.3       1 LIG     -0.572100
     25 F           5.9230    1.6710    0.2390 F.        1 LIG     -0.116900
     26 F1         -0.3340    0.2160   -2.3770 F.        1 LIG     -0.235800
     27 F2         -0.8160    2.4470   -2.4780 F.        1 LIG     -0.235800
     28 Br          5.8440   -1.3490   -0.1070 B.r       1 LIG     -0.046100
     29 H          -5.6730    2.8510    2.0430 H         1 LIG      0.083800
     30 H1         -5.6690   -3.9140   -1.3320 H         1 LIG      0.066700
     31 H2         -7.2210   -3.1240   -1.4670 H         1 LIG      0.066700
     32 H3         -6.7510   -3.8750    0.0390 H         1 LIG      0.066700
     33 H4          2.9730   -1.6710    0.4210 H         1 LIG      0.169000
     34 H5          3.8260    3.0790    0.8080 H         1 LIG      0.161000
     35 H6          1.5870    2.2380    1.1190 H         1 LIG      0.154000
     36 H7         -3.8660   -2.4550   -1.1660 H         1 LIG      0.168000
     37 H8         -2.9020    0.8600   -2.2710 H         1 LIG      0.088200
     38 H9         -2.7740    1.8100   -0.8100 H         1 LIG      0.088200
     39 H10        -1.6630   -0.9950    1.3430 H         1 LIG      0.088700
     40 H11        -2.1820    0.6680    1.3840 H         1 LIG      0.088700
     41 H12        -0.4850    2.4010    0.1060 H         1 LIG      0.085200
     42 H13         0.9220    1.6460   -0.5910 H         1 LIG      0.085200
     43 H14        -2.0040   -1.0960   -1.0640 H         1 LIG      0.087700
@<TRIPOS>BOND
     1    1    2 ar  
     2    2   20 2   
     3    3   22 ar  
     4    4   20 1   
     5    5   15 1   
     6    6   26 1   
     7    6   16 1   
     8    7   12 1   
     9    8    9 ar  
    10    9   28 1   
    11   10   13 ar  
    12   11   12 ar  
    13   11   10 ar  
    14   12    8 ar  
    15   13    9 ar  
    16   13   25 1   
    17   14    3 ar  
    18   14   15 ar  
    19   15    1 ar  
    20   16   19 1   
    21   17   19 1   
    22   18    6 1   
    23   18   23 1   
    24   19    3 1   
    25   21    4 2   
    26   22   21 1   
    27   22    2 ar  
    28   23    7 1   
    29   23   17 1   
    30   24    7 2   
    31   27    6 1   
    32    4   29 1   
    33    5   30 1   
    34    5   31 1   
    35    5   32 1   
    36    8   33 1   
    37   10   34 1   
    38   11   35 1   
    39   14   36 1   
    40   16   37 1   
    41   16   38 1   
    42   17   39 1   
    43   17   40 1   
    44   18   41 1   
    45   18   42 1   
    46   19   43 1   
@<TRIPOS>SUBSTRUCTURE
     1 LIG         1 TEMP              0 ****  ****    0 ROOT
