@<TRIPOS>MOLECULE
KH2
   33    33     1     0     0
SMALL
bcc


@<TRIPOS>ATOM
      1 S           3.2270   -0.1080    0.0020 S.6       1 LIG      1.434800
      2 C           1.7980    0.8510   -0.5700 C.3       1 LIG     -0.320600
      3 O           4.4400    0.5020   -0.5190 O.3       1 LIG     -0.741200
      4 N          -1.9280    0.4260    0.0050 N.4       1 LIG     -0.589800
      5 O1          3.2460   -0.0980    1.4570 O.3       1 LIG     -0.741200
      6 C1          0.5120    0.2220   -0.0310 C.3       1 LIG     -0.039400
      7 O2          3.1030   -1.4720   -0.4870 O.3       1 LIG     -0.741200
      8 C2         -0.6930    1.0310   -0.5130 C.3       1 LIG      0.133800
      9 C3         -1.8930    0.4280    1.4730 C.3       1 LIG      0.062100
     10 C4         -3.2780   -1.6150    0.1230 C.3       1 LIG     -0.096900
     11 C5         -4.3660    0.6290    0.1470 C.3       1 LIG     -0.096900
     12 C6         -4.5220   -0.8270   -0.2970 C.3       1 LIG     -0.094400
     13 C7         -3.0830    1.2060   -0.4560 C.3       1 LIG      0.108300
     14 C8         -2.0360   -0.9550   -0.4790 C.3       1 LIG      0.108300
     15 H           1.7740    0.8510   -1.6400 H         1 LIG      0.084700
     16 H1          1.8790    1.8570   -0.2150 H         1 LIG      0.084700
     17 H2          0.5360    0.2220    1.0390 H         1 LIG      0.069700
     18 H3          0.4310   -0.7840   -0.3870 H         1 LIG      0.069700
     19 H4         -0.6120    2.0370   -0.1580 H         1 LIG      0.071200
     20 H5         -0.7180    1.0320   -1.5830 H         1 LIG      0.071200
     21 H6         -1.8140    1.4350    1.8270 H         1 LIG      0.110033
     22 H7         -1.0480   -0.1360    1.8100 H         1 LIG      0.110033
     23 H8         -2.7910   -0.0140    1.8520 H         1 LIG      0.110033
     24 H9         -3.3560   -2.6220   -0.2320 H         1 LIG      0.074700
     25 H10        -3.2000   -1.6210    1.1900 H         1 LIG      0.074700
     26 H11        -4.3110    0.6730    1.2150 H         1 LIG      0.074700
     27 H12        -5.2080    1.1980   -0.1880 H         1 LIG      0.074700
     28 H13        -5.3880   -1.2520    0.1660 H         1 LIG      0.060700
     29 H14        -4.6340   -0.8700   -1.3600 H         1 LIG      0.060700
     30 H15        -3.1400    1.1610   -1.5240 H         1 LIG      0.103200
     31 H16        -2.9710    2.2240   -0.1460 H         1 LIG      0.103200
     32 H17        -1.1650   -1.5040   -0.1880 H         1 LIG      0.103200
     33 H18        -2.1180   -0.9520   -1.5460 H         1 LIG      0.103200
@<TRIPOS>BOND
     1    1    2 1   
     2    1    3 1   
     3    1    5 1   
     4    1    7 1   
     5    2    6 1   
     6    4    8 1   
     7    4    9 1   
     8    4   13 1   
     9    4   14 1   
    10    6    8 1   
    11   10   12 1   
    12   10   14 1   
    13   11   12 1   
    14   11   13 1   
    15    2   15 1   
    16    2   16 1   
    17    6   17 1   
    18    6   18 1   
    19    8   19 1   
    20    8   20 1   
    21    9   21 1   
    22    9   22 1   
    23    9   23 1   
    24   10   24 1   
    25   10   25 1   
    26   11   26 1   
    27   11   27 1   
    28   12   28 1   
    29   12   29 1   
    30   13   30 1   
    31   13   31 1   
    32   14   32 1   
    33   14   33 1   
@<TRIPOS>SUBSTRUCTURE
     1 LIG         1 TEMP              0 ****  ****    0 ROOT
