@<TRIPOS>MOLECULE
PH6
   33    34     1     0     0
SMALL
bcc


@<TRIPOS>ATOM
      1 C          -3.3920    0.3970    0.0770 c         1 LIG      0.934600
      2 O          -4.0590   -0.2490   -0.6950 o         1 LIG     -0.762300
      3 CA         -2.0380   -0.1060    0.5070 c3        1 LIG     -0.057500
      4 C1         -0.9220    0.6030   -0.2890 c3        1 LIG     -0.078400
      5 C2          0.1440   -0.4830   -0.5400 c3        1 LIG     -0.074700
      6 C3         -0.4170   -1.7580    0.1260 c3        1 LIG      0.115800
      7 N          -1.8870   -1.5440    0.1640 n4        1 LIG     -0.764000
      8 C4          1.4710   -0.0850    0.1090 c3        1 LIG     -0.058700
      9 C5          2.5130   -1.1750   -0.1510 c3        1 LIG     -0.076900
     10 C6          3.8410   -0.7770    0.4980 c3        1 LIG     -0.076400
     11 C7          4.3250    0.5450   -0.1010 c3        1 LIG     -0.078400
     12 C8          3.2830    1.6350    0.1590 c3        1 LIG     -0.076400
     13 C9          1.9560    1.2370   -0.4900 c3        1 LIG     -0.076900
     14 OXT        -3.8530    1.5660    0.5480 o         1 LIG     -0.762300
     15 HA         -1.9630    0.0720    1.5590 hx        1 LIG      0.088700
     16 H          -0.5090    1.4100    0.2800 hc        1 LIG      0.082200
     17 H3         -1.2870    1.0250   -1.2020 hc        1 LIG      0.082200
     18 H4          0.3360   -0.6250   -1.5830 hc        1 LIG      0.082700
     19 H5         -0.0260   -1.8710    1.1150 hx        1 LIG      0.081200
     20 H6         -0.1490   -2.6460   -0.4070 hx        1 LIG      0.081200
     21 H1         -2.3050   -1.7450   -0.7440 hn        1 LIG      0.453800
     22 H2         -2.3530   -2.1560    0.8330 hn        1 LIG      0.453800
     23 H7          1.3310    0.0310    1.1630 hc        1 LIG      0.049700
     24 H8          2.6520   -1.2910   -1.2060 hc        1 LIG      0.043950
     25 H9          2.1740   -2.0990    0.2680 hc        1 LIG      0.043950
     26 H10         4.5700   -1.5390    0.3160 hc        1 LIG      0.043200
     27 H11         3.7020   -0.6610    1.5530 hc        1 LIG      0.043200
     28 H12         4.4640    0.4290   -1.1550 hc        1 LIG      0.044200
     29 H13         5.2530    0.8240    0.3530 hc        1 LIG      0.044200
     30 H14         3.6220    2.5590   -0.2600 hc        1 LIG      0.043200
     31 H15         3.1440    1.7510    1.2140 hc        1 LIG      0.043200
     32 H16         1.2270    1.9990   -0.3080 hc        1 LIG      0.043950
     33 H17         2.0960    1.1210   -1.5440 hc        1 LIG      0.043950
@<TRIPOS>BOND
     1    1    2 1   
     2    1    3 1   
     3    1   14 1   
     4    3    4 1   
     5    3    7 1   
     6    4    5 1   
     7    5    6 1   
     8    5    8 1   
     9    6    7 1   
    10    8    9 1   
    11    8   13 1   
    12    9   10 1   
    13   10   11 1   
    14   11   12 1   
    15   12   13 1   
    16    3   15 1   
    17    4   16 1   
    18    4   17 1   
    19    5   18 1   
    20    6   19 1   
    21    6   20 1   
    22    7   21 1   
    23    7   22 1   
    24    8   23 1   
    25    9   24 1   
    26    9   25 1   
    27   10   26 1   
    28   10   27 1   
    29   11   28 1   
    30   11   29 1   
    31   12   30 1   
    32   12   31 1   
    33   13   32 1   
    34   13   33 1   
@<TRIPOS>SUBSTRUCTURE
     1 LIG         1 TEMP              0 ****  ****    0 ROOT
