@<TRIPOS>MOLECULE
WTF
   52    55     1     0     0
SMALL
bcc


@<TRIPOS>ATOM
      1 C          -1.6200   -3.4120    0.6380 C.3       1 LIG     -0.072100
      2 C1         -2.0380   -2.0990   -0.0270 C.3       1 LIG     -0.328600
      3 S          -3.8290   -1.8730    0.1560 S.y       1 LIG      1.368300
      4 O          -4.5350   -2.8340   -0.6160 O.3       1 LIG     -0.641800
      5 O1         -4.1650   -1.6350    1.5160 O.3       1 LIG     -0.641800
      6 C2         -4.1620   -0.3400   -0.6480 C.a       1 LIG     -0.313500
      7 C3         -3.6360    0.8470   -0.1370 C.a       1 LIG     -0.014600
      8 C4         -3.9050    2.0560   -0.7800 C.a       1 LIG     -0.135000
      9 C5         -4.6880    2.0710   -1.9150 C.a       1 LIG     -0.075000
     10 C6         -5.2070    0.8900   -2.4170 C.a       1 LIG     -0.134000
     11 C7         -4.9400   -0.3120   -1.7870 C.a       1 LIG     -0.044000
     12 C8         -2.7980    0.8230    1.0810 C.        1 LIG      0.651700
     13 O2         -3.2530    0.3980    2.1240 O.3       1 LIG     -0.574100
     14 N          -1.5280    1.2740    1.0340 N.        1 LIG     -0.472800
     15 C9         -0.6440    1.1620    2.2040 C.3       1 LIG      0.080000
     16 C10         0.6650    0.4990    1.7620 C.3       1 LIG      0.165800
     17 N1          1.2280    1.2420    0.6260 N.h       1 LIG     -0.673600
     18 C11         0.3330    1.1940   -0.5380 C.3       1 LIG      0.164800
     19 C12        -0.9890    1.8850   -0.1910 C.3       1 LIG      0.108700
     20 C13        -0.7490    3.3780    0.0430 C.3       1 LIG     -0.107100
     21 C14         2.4860    0.7740    0.3030 C.c       1 LIG      0.567100
     22 N2          3.4780    0.7050    1.1230 N.d       1 LIG     -0.578100
     23 C15         4.6490    0.2230    0.6570 C.a       1 LIG      0.096400
     24 C16         4.5890   -0.1370   -0.6920 C.a       1 LIG     -0.076100
     25 S1          2.9590    0.1800   -1.2820 S.3       1 LIG     -0.060100
     26 C17         5.7120   -0.6540   -1.3340 C.a       1 LIG     -0.125000
     27 C18         6.8950   -0.8090   -0.6440 C.a       1 LIG      0.126900
     28 F           7.9830   -1.3110   -1.2700 F.        1 LIG     -0.137900
     29 C19         6.9690   -0.4490    0.6950 C.a       1 LIG     -0.158000
     30 C20         5.8680    0.0490    1.3450 C.a       1 LIG     -0.061000
     31 H          -0.5640   -3.5460    0.5300 H         1 LIG      0.055033
     32 H1         -2.1320   -4.2270    0.1710 H         1 LIG      0.055033
     33 H2         -1.8720   -3.3810    1.6780 H         1 LIG      0.055033
     34 H3         -1.7870   -2.1300   -1.0670 H         1 LIG      0.117200
     35 H4         -1.5260   -1.2840    0.4400 H         1 LIG      0.117200
     36 H5         -3.5190    2.9370   -0.4070 H         1 LIG      0.149000
     37 H6         -4.8880    2.9650   -2.3910 H         1 LIG      0.144000
     38 H7         -5.7950    0.9060   -3.2650 H         1 LIG      0.148000
     39 H8         -5.3240   -1.1900   -2.1700 H         1 LIG      0.171000
     40 H9         -1.1150    0.5650    2.9570 H         1 LIG      0.077200
     41 H10        -0.4450    2.1330    2.6080 H         1 LIG      0.077200
     42 H11         0.4720   -0.5110    1.4680 H         1 LIG      0.067200
     43 H12         1.3610    0.5050    2.5740 H         1 LIG      0.067200
     44 H13         0.1440    0.1740   -0.8020 H         1 LIG      0.054200
     45 H14         0.7930    1.6960   -1.3640 H         1 LIG      0.054200
     46 H15        -1.6830    1.7690   -0.9970 H         1 LIG      0.068700
     47 H16        -0.0560    3.5060    0.8480 H         1 LIG      0.049367
     48 H17        -1.6750    3.8530    0.2910 H         1 LIG      0.049367
     49 H18        -0.3490    3.8190   -0.8460 H         1 LIG      0.049367
     50 H19         5.6580   -0.9220   -2.3290 H         1 LIG      0.156000
     51 H20         7.8590   -0.5570    1.2060 H         1 LIG      0.154000
     52 H21         5.9320    0.2980    2.3440 H         1 LIG      0.158000
@<TRIPOS>BOND
     1    2    1 1   
     2    3    5 2   
     3    3    2 1   
     4    4    3 2   
     5    6    3 1   
     6    7   12 1   
     7    7    6 ar  
     8    8    7 ar  
     9    9    8 ar  
    10    9   10 ar  
    11   10   11 ar  
    12   11    6 ar  
    13   12   13 2   
    14   14   19 1   
    15   14   12 1   
    16   15   14 1   
    17   16   15 1   
    18   17   16 1   
    19   17   18 1   
    20   18   19 1   
    21   19   20 1   
    22   21   22 2   
    23   21   17 1   
    24   23   22 1   
    25   24   25 1   
    26   24   23 ar  
    27   25   21 1   
    28   26   24 ar  
    29   27   26 ar  
    30   27   29 ar  
    31   28   27 1   
    32   29   30 ar  
    33   30   23 ar  
    34    1   31 1   
    35    1   32 1   
    36    1   33 1   
    37    2   34 1   
    38    2   35 1   
    39    8   36 1   
    40    9   37 1   
    41   10   38 1   
    42   11   39 1   
    43   15   40 1   
    44   15   41 1   
    45   16   42 1   
    46   16   43 1   
    47   18   44 1   
    48   18   45 1   
    49   19   46 1   
    50   20   47 1   
    51   20   48 1   
    52   20   49 1   
    53   26   50 1   
    54   29   51 1   
    55   30   52 1   
@<TRIPOS>SUBSTRUCTURE
     1 LIG         1 TEMP              0 ****  ****    0 ROOT
