@<TRIPOS>MOLECULE
TTG
   57    60     1     0     0
SMALL
bcc


@<TRIPOS>ATOM
      1 C          -2.3330    0.6210   -3.9170 C.3       1 LIG     -0.094400
      2 C1         -3.2230    0.7160   -5.1580 C.3       1 LIG     -0.082100
      3 C2         -1.0030   -0.0340   -4.2910 C.3       1 LIG      0.021000
      4 O          -1.2460   -1.3450   -4.8040 O.h       1 LIG     -0.566800
      5 C3         -0.1270   -0.1270   -3.0690 C.c       1 LIG     -0.005200
      6 C4         -0.3120    0.7950   -5.3420 C.        1 LIG      0.944600
      7 C5          1.2280   -0.2120   -3.1980 C.d       1 LIG     -0.165400
      8 C6         -0.6950   -0.1210   -1.7920 C.c       1 LIG     -0.061000
      9 O1         -0.0250    0.3030   -6.4080 O.3       1 LIG     -0.791800
     10 O2         -0.0150    2.0800   -5.0950 O.3       1 LIG     -0.791800
     11 C7          2.0300   -0.2970   -2.0470 C.        1 LIG      0.706700
     12 C8          1.8610   -0.2130   -4.5650 C.3       1 LIG      0.161600
     13 C9          0.1120   -0.2120   -0.6770 C.d       1 LIG     -0.126200
     14 O3          3.2430   -0.3730   -2.1580 O.3       1 LIG     -0.648500
     15 N           1.4680   -0.2960   -0.8210 N.        1 LIG     -0.375000
     16 C10        -0.2410   -0.2310    0.7610 C.a       1 LIG      0.510100
     17 C11         2.0790   -0.3750    0.5110 C.3       1 LIG      0.137300
     18 C12         0.9470   -0.3310    1.5040 C.a       1 LIG     -0.156600
     19 N1         -1.4170   -0.1720    1.3670 N.b       1 LIG     -0.618000
     20 C13         0.9090   -0.3690    2.8630 C.a       1 LIG     -0.140000
     21 C14        -1.5170   -0.2060    2.6960 C.a       1 LIG      0.378600
     22 C15        -0.3480   -0.3060    3.4950 C.a       1 LIG     -0.095300
     23 C16        -2.7740   -0.1430    3.3280 C.a       1 LIG     -0.070300
     24 C17        -0.4630   -0.3400    4.8920 C.a       1 LIG     -0.208300
     25 C18        -2.8520   -0.1790    4.6840 C.a       1 LIG     -0.208000
     26 C19        -1.6990   -0.2770    5.4700 C.a       1 LIG      0.144100
     27 C20         0.7700   -0.4460    5.7520 C.3       1 LIG      0.196100
     28 N2          1.2600    0.9000    6.0720 N.4       1 LIG     -0.685400
     29 C21         2.4570    0.7270    6.9070 C.3       1 LIG      0.082100
     30 C22         1.7100    1.4980    4.8080 C.3       1 LIG      0.082100
     31 O4         -1.8110   -0.3100    6.8240 O.h       1 LIG     -0.546100
     32 O5          1.2050   -1.1750   -5.3930 O.h       1 LIG     -0.612800
     33 H          -2.8230    0.0310   -3.1710 H         1 LIG      0.041200
     34 H1         -2.1510    1.6030   -3.5330 H         1 LIG      0.041200
     35 H2         -3.4050   -0.2660   -5.5420 H         1 LIG      0.033367
     36 H3         -2.7330    1.3060   -5.9040 H         1 LIG      0.033367
     37 H4         -4.1530    1.1750   -4.8960 H         1 LIG      0.033367
     38 H5         -1.6910   -1.8790   -4.1280 H         1 LIG      0.371000
     39 H6         -1.7190   -0.0490   -1.6830 H         1 LIG      0.181000
     40 H7          2.8970   -0.4650   -4.4780 H         1 LIG      0.093200
     41 H8          1.7660    0.7590   -5.0030 H         1 LIG      0.093200
     42 H9          2.7380    0.4540    0.6650 H         1 LIG      0.081200
     43 H10         2.6550   -1.2700    0.6200 H         1 LIG      0.081200
     44 H11         1.7770   -0.4420    3.4160 H         1 LIG      0.124000
     45 H12        -3.6340   -0.0700    2.7620 H         1 LIG      0.181000
     46 H13        -3.7760   -0.1330    5.1410 H         1 LIG      0.155000
     47 H14         1.5280   -0.9850    5.2240 H         1 LIG      0.103700
     48 H15         0.5300   -0.9630    6.6570 H         1 LIG      0.103700
     49 H16         0.5490    1.4670    6.5330 H         1 LIG      0.461800
     50 H17         3.1730    0.1280    6.3840 H         1 LIG      0.101367
     51 H18         2.1870    0.2430    7.8220 H         1 LIG      0.101367
     52 H19         2.8830    1.6850    7.1220 H         1 LIG      0.101367
     53 H20         2.4530    0.8710    4.3610 H         1 LIG      0.101367
     54 H21         2.1270    2.4650    4.9990 H         1 LIG      0.101367
     55 H22         0.8780    1.5940    4.1430 H         1 LIG      0.101367
     56 H23        -1.0430   -0.3760    7.3560 H         1 LIG      0.451000
     57 H24         1.2920   -2.0560   -4.9960 H         1 LIG      0.410000
@<TRIPOS>BOND
     1    1    2 1   
     2    1    3 1   
     3    3    4 1   
     4    3    5 1   
     5    3    6 1   
     6    5    7 2   
     7    5    8 1   
     8    6    9 1   
     9    6   10 1   
    10    7   11 1   
    11    7   12 1   
    12    8   13 2   
    13   11   14 2   
    14   11   15 1   
    15   12   32 1   
    16   13   15 1   
    17   13   16 1   
    18   15   17 1   
    19   16   18 ar  
    20   16   19 ar  
    21   17   18 1   
    22   18   20 ar  
    23   19   21 ar  
    24   20   22 ar  
    25   21   22 ar  
    26   21   23 ar  
    27   22   24 ar  
    28   23   25 ar  
    29   24   26 ar  
    30   24   27 1   
    31   25   26 ar  
    32   26   31 1   
    33   27   28 1   
    34   28   29 1   
    35   28   30 1   
    36    1   33 1   
    37    1   34 1   
    38    2   35 1   
    39    2   36 1   
    40    2   37 1   
    41    4   38 1   
    42    8   39 1   
    43   12   40 1   
    44   12   41 1   
    45   17   42 1   
    46   17   43 1   
    47   20   44 1   
    48   23   45 1   
    49   25   46 1   
    50   27   47 1   
    51   27   48 1   
    52   28   49 1   
    53   29   50 1   
    54   29   51 1   
    55   29   52 1   
    56   30   53 1   
    57   30   54 1   
    58   30   55 1   
    59   31   56 1   
    60   32   57 1   
@<TRIPOS>SUBSTRUCTURE
     1 LIG         1 TEMP              0 ****  ****    0 ROOT
