@<TRIPOS>MOLECULE
ZZX
   53    56     1     0     0
SMALL
bcc


@<TRIPOS>ATOM
      1 C           6.3300    2.2560   -2.2430 C.3       1 LIG     -0.124100
      2 C1          1.4230   -4.8110   -1.2080 C.3       1 LIG      0.071300
      3 C2          3.0140   -2.2700   -0.9020 C.3       1 LIG     -0.114100
      4 O           1.8090   -3.6070    1.1740 O.3       1 LIG     -0.611100
      5 O1          4.2710    2.9910    0.2120 O.3       1 LIG     -0.661500
      6 O2         -1.2930    1.7310    1.8870 O.3       1 LIG     -0.596500
      7 O3          1.4080    3.1170    1.1110 O.h       1 LIG     -0.447100
      8 F          -6.2040   -0.0390   -2.2630 F.        1 LIG     -0.124900
      9 Cl         -5.5010    2.5240   -0.9850 C.l       1 LIG     -0.059400
     10 C3         -4.8990   -1.4260   -0.8530 C.a       1 LIG     -0.168000
     11 C4         -4.0270   -1.5590    0.2110 C.a       1 LIG     -0.088000
     12 C5         -4.0600    0.8130    0.5400 C.a       1 LIG     -0.081000
     13 C6          6.2560    1.5030   -0.9130 C.3       1 LIG      0.086000
     14 C7         -2.6570   -0.5880    2.0670 C.3       1 LIG      0.150300
     15 C8          4.5050   -0.2870   -1.1910 C.3       1 LIG      0.085000
     16 N          -0.7030   -1.5870    1.2300 N.c       1 LIG     -0.394300
     17 N1          0.8530   -3.5160   -0.8290 N.        1 LIG     -0.551900
     18 C9          1.1070   -2.9990    0.3900 C.        1 LIG      0.604800
     19 C10         4.0120    1.8280   -0.0400 C.        1 LIG      0.750100
     20 C11        -5.3520   -0.1710   -1.2230 C.a       1 LIG      0.141900
     21 C12        -3.6080   -0.4400    0.9070 C.a       1 LIG     -0.125300
     22 C13        -4.9320    0.9500   -0.5240 C.a       1 LIG     -0.026600
     23 C14         1.6000    1.7990    0.8530 C.c       1 LIG      0.232100
     24 C15         0.5310   -1.6930    0.7720 C.d       1 LIG      0.299900
     25 C16         2.7380    1.2210    0.3510 C.d       1 LIG     -0.296900
     26 C17        -0.7000    0.7250    1.5390 C.        1 LIG      0.736100
     27 C18         0.6770    0.7660    1.0480 C.c       1 LIG     -0.270600
     28 C19         1.3030   -0.4490    0.6620 C.d       1 LIG     -0.037200
     29 C20         3.6200   -1.0500   -0.2060 C.3       1 LIG      0.035000
     30 N2          4.8870    1.0300   -0.6960 N.        1 LIG     -0.454800
     31 N3         -1.2770   -0.5010    1.5820 N.        1 LIG     -0.203800
     32 N4          2.5440   -0.1670    0.2600 N.a       1 LIG      0.010900
     33 H           7.3300    2.6020   -2.4020 H         1 LIG      0.044367
     34 H1          5.6630    3.0920   -2.2170 H         1 LIG      0.044367
     35 H2          6.0480    1.6000   -3.0400 H         1 LIG      0.044367
     36 H3          1.1160   -5.0590   -2.2030 H         1 LIG      0.048700
     37 H4          1.0790   -5.5640   -0.5310 H         1 LIG      0.048700
     38 H5          2.4910   -4.7560   -1.1680 H         1 LIG      0.048700
     39 H6          3.7990   -2.9130   -1.2420 H         1 LIG      0.054367
     40 H7          2.4290   -1.9490   -1.7380 H         1 LIG      0.054367
     41 H8          2.3910   -2.8010   -0.2130 H         1 LIG      0.054367
     42 H9          2.0950    3.7320    0.9440 H         1 LIG      0.463000
     43 H10        -5.2120   -2.2620   -1.3710 H         1 LIG      0.154000
     44 H11        -3.6880   -2.4940    0.4860 H         1 LIG      0.142000
     45 H12        -3.7470    1.6470    1.0600 H         1 LIG      0.178000
     46 H13         6.5370    2.1590   -0.1160 H         1 LIG      0.066200
     47 H14         6.9230    0.6660   -0.9390 H         1 LIG      0.066200
     48 H15        -2.8110   -1.5380    2.5350 H         1 LIG      0.088200
     49 H16        -2.8360    0.1930    2.7760 H         1 LIG      0.088200
     50 H17         3.9700   -0.1660   -2.1100 H         1 LIG      0.052200
     51 H18         5.4020   -0.8550   -1.3290 H         1 LIG      0.052200
     52 H19         0.2850   -3.0230   -1.4640 H         1 LIG      0.323500
     53 H20         4.2070   -1.3730    0.6280 H         1 LIG      0.114700
@<TRIPOS>BOND
     1    1   13 1   
     2    2   17 1   
     3    3   29 1   
     4    4   18 2   
     5    5   19 2   
     6    6   26 2   
     7    7   23 1   
     8    8   20 1   
     9    9   22 1   
    10   10   11 ar  
    11   10   20 ar  
    12   11   21 ar  
    13   12   21 ar  
    14   12   22 ar  
    15   13   30 1   
    16   14   21 1   
    17   14   31 1   
    18   15   29 1   
    19   15   30 1   
    20   16   24 2   
    21   16   31 1   
    22   17   18 1   
    23   18   24 1   
    24   19   25 1   
    25   19   30 1   
    26   20   22 ar  
    27   23   25 ar  
    28   23   27 ar  
    29   24   28 1   
    30   25   32 ar  
    31   26   27 1   
    32   26   31 1   
    33   27   28 ar  
    34   28   32 ar  
    35   29   32 1   
    36    1   33 1   
    37    1   34 1   
    38    1   35 1   
    39    2   36 1   
    40    2   37 1   
    41    2   38 1   
    42    3   39 1   
    43    3   40 1   
    44    3   41 1   
    45    7   42 1   
    46   10   43 1   
    47   11   44 1   
    48   12   45 1   
    49   13   46 1   
    50   13   47 1   
    51   14   48 1   
    52   14   49 1   
    53   15   50 1   
    54   15   51 1   
    55   17   52 1   
    56   29   53 1   
@<TRIPOS>SUBSTRUCTURE
     1 LIG         1 TEMP              0 ****  ****    0 ROOT
