@<TRIPOS>MOLECULE
DSU
   74    75     1     0     0
SMALL
bcc


@<TRIPOS>ATOM
      1 O           3.4020   -2.2810   -0.4080 O.3       1 LIG     -0.548000
      2 C           3.1030   -1.2740    0.1900 C.        1 LIG      0.631100
      3 C1          4.1570   -0.2430    0.5020 C.3       1 LIG     -0.127400
      4 C2          5.5070   -0.7120   -0.0440 C.3       1 LIG     -0.079400
      5 C3          6.5770    0.3350    0.2730 C.3       1 LIG     -0.078400
      6 C4          7.9270   -0.1350   -0.2730 C.3       1 LIG     -0.079400
      7 C5          8.9970    0.9120    0.0440 C.3       1 LIG     -0.079400
      8 C6         10.3470    0.4430   -0.5020 C.3       1 LIG     -0.079400
      9 C7         11.4170    1.4900   -0.1850 C.3       1 LIG     -0.079400
     10 C8         12.7670    1.0210   -0.7310 C.3       1 LIG     -0.080400
     11 C9         13.8370    2.0680   -0.4140 C.3       1 LIG     -0.092100
     12 O1          1.8330   -1.0740    0.5760 O.2       1 LIG     -0.423900
     13 C10         0.8180   -2.0680    0.2750 C.3       1 LIG      0.123400
     14 C11        -0.5320   -1.5990    0.8210 C.3       1 LIG      0.066100
     15 O2         -1.0100   -0.4550    0.0820 O.2       1 LIG     -0.372600
     16 C12        -1.6230   -2.6730    0.5770 C.3       1 LIG      0.093100
     17 O3         -1.6450   -3.6350    1.6340 O.h       1 LIG     -0.570800
     18 C13        -2.9180   -1.8230    0.5760 C.3       1 LIG      0.073100
     19 O4         -3.8130   -2.2680   -0.4460 O.h       1 LIG     -0.592800
     20 C14        -2.4320   -0.3910    0.2800 C.3       1 LIG      0.254600
     21 C15        -2.7510    0.5230    1.4650 C.3       1 LIG      0.142400
     22 O5         -2.2590    1.8380    1.2000 O.h       1 LIG     -0.589800
     23 O6         -3.0650    0.1070   -0.9000 O.2       1 LIG     -0.413600
     24 C16        -4.4500    0.2710   -0.5880 C.3       1 LIG      0.305900
     25 O7         -4.6360    1.4990    0.1120 O.2       1 LIG     -0.481600
     26 C17        -5.9900    1.5390    0.5610 C.3       1 LIG      0.301900
     27 O8         -6.1730    2.6680    1.4180 O.2       1 LIG     -0.396600
     28 C18        -5.4710    2.3840    2.6300 C.3       1 LIG      0.108700
     29 C19        -6.9310    1.6560   -0.6400 C.3       1 LIG      0.104100
     30 O9         -6.6180    2.8380   -1.3790 O.h       1 LIG     -0.570800
     31 C20        -6.7520    0.4260   -1.5370 C.3       1 LIG      0.070100
     32 O10        -7.1990   -0.7410   -0.8440 O.h       1 LIG     -0.583800
     33 C21        -5.2650    0.2850   -1.8840 C.3       1 LIG      0.086100
     34 O11        -5.0540   -0.9350   -2.5960 O.h       1 LIG     -0.585800
     35 H           4.2260   -0.1140    1.5620 H         1 LIG      0.081200
     36 H1          3.8920    0.6880    0.0450 H         1 LIG      0.081200
     37 H2          5.4380   -0.8410   -1.1040 H         1 LIG      0.057700
     38 H3          5.7720   -1.6430    0.4120 H         1 LIG      0.057700
     39 H4          6.6460    0.4650    1.3330 H         1 LIG      0.041200
     40 H5          6.3120    1.2660   -0.1830 H         1 LIG      0.041200
     41 H6          7.8580   -0.2650   -1.3330 H         1 LIG      0.042700
     42 H7          8.1920   -1.0660    0.1830 H         1 LIG      0.042700
     43 H8          9.0660    1.0410    1.1040 H         1 LIG      0.039700
     44 H9          8.7320    1.8430   -0.4120 H         1 LIG      0.039700
     45 H10        10.2780    0.3140   -1.5620 H         1 LIG      0.040200
     46 H11        10.6120   -0.4880   -0.0460 H         1 LIG      0.040200
     47 H12        11.4860    1.6190    0.8750 H         1 LIG      0.039700
     48 H13        11.1520    2.4210   -0.6410 H         1 LIG      0.039700
     49 H14        12.6980    0.8920   -1.7910 H         1 LIG      0.038700
     50 H15        13.0320    0.0900   -0.2750 H         1 LIG      0.038700
     51 H16        13.5720    2.9990   -0.8700 H         1 LIG      0.032700
     52 H17        14.7810    1.7400   -0.7960 H         1 LIG      0.032700
     53 H18        13.9060    2.1970    0.6460 H         1 LIG      0.032700
     54 H19         1.0840   -2.9990    0.7310 H         1 LIG      0.080200
     55 H20         0.7490   -2.1980   -0.7850 H         1 LIG      0.080200
     56 H21        -0.3780   -1.3900    1.8590 H         1 LIG      0.110700
     57 H22        -1.4760   -3.2410   -0.3180 H         1 LIG      0.108700
     58 H23        -1.7770   -3.1820    2.4810 H         1 LIG      0.406000
     59 H24        -3.4530   -1.8940    1.5000 H         1 LIG      0.103700
     60 H25        -3.3690   -2.2220   -1.3070 H         1 LIG      0.430000
     61 H26        -2.2840    0.1390    2.3480 H         1 LIG      0.051700
     62 H27        -3.8110    0.5620    1.6100 H         1 LIG      0.051700
     63 H28        -1.2980    1.8040    1.0690 H         1 LIG      0.434000
     64 H29        -4.7790   -0.5400    0.0280 H         1 LIG      0.059700
     65 H30        -6.2110    0.6400    1.0970 H         1 LIG      0.041700
     66 H31        -5.5800    3.2060    3.3060 H         1 LIG      0.050033
     67 H32        -4.4340    2.2350    2.4150 H         1 LIG      0.050033
     68 H33        -5.8740    1.4990    3.0760 H         1 LIG      0.050033
     69 H34        -7.9440    1.7110   -0.3010 H         1 LIG      0.101700
     70 H35        -5.7000    2.7920   -1.6880 H         1 LIG      0.425000
     71 H36        -7.3260    0.5390   -2.4330 H         1 LIG      0.118700
     72 H37        -6.6840   -0.8510   -0.0300 H         1 LIG      0.396000
     73 H38        -4.9560    1.1070   -2.4960 H         1 LIG      0.116700
     74 H39        -5.3320   -1.6830   -2.0450 H         1 LIG      0.421000
@<TRIPOS>BOND
     1    1    2 2   
     2    2    3 1   
     3    2   12 1   
     4    3    4 1   
     5    4    5 1   
     6    5    6 1   
     7    6    7 1   
     8    7    8 1   
     9    8    9 1   
    10    9   10 1   
    11   10   11 1   
    12   12   13 1   
    13   13   14 1   
    14   14   15 1   
    15   14   16 1   
    16   15   20 1   
    17   16   17 1   
    18   16   18 1   
    19   18   19 1   
    20   18   20 1   
    21   20   21 1   
    22   20   23 1   
    23   21   22 1   
    24   23   24 1   
    25   24   25 1   
    26   24   33 1   
    27   25   26 1   
    28   26   27 1   
    29   26   29 1   
    30   27   28 1   
    31   29   30 1   
    32   29   31 1   
    33   31   32 1   
    34   31   33 1   
    35   33   34 1   
    36    3   35 1   
    37    3   36 1   
    38    4   37 1   
    39    4   38 1   
    40    5   39 1   
    41    5   40 1   
    42    6   41 1   
    43    6   42 1   
    44    7   43 1   
    45    7   44 1   
    46    8   45 1   
    47    8   46 1   
    48    9   47 1   
    49    9   48 1   
    50   10   49 1   
    51   10   50 1   
    52   11   51 1   
    53   11   52 1   
    54   11   53 1   
    55   13   54 1   
    56   13   55 1   
    57   14   56 1   
    58   16   57 1   
    59   17   58 1   
    60   18   59 1   
    61   19   60 1   
    62   21   61 1   
    63   21   62 1   
    64   22   63 1   
    65   24   64 1   
    66   26   65 1   
    67   28   66 1   
    68   28   67 1   
    69   28   68 1   
    70   29   69 1   
    71   30   70 1   
    72   31   71 1   
    73   32   72 1   
    74   33   73 1   
    75   34   74 1   
@<TRIPOS>SUBSTRUCTURE
     1 LIG         1 TEMP              0 ****  ****    0 ROOT
