@<TRIPOS>MOLECULE
5PX
   28    30     1     0     0
SMALL
bcc


@<TRIPOS>ATOM
      1 C           0.6380    1.8720    0.0660 ca        1 LIG     -0.174000
      2 C1         -0.4330    2.7390    0.0940 ca        1 LIG     -0.113000
      3 C2         -1.7300    2.2500    0.0450 ca        1 LIG      0.063100
      4 C3         -1.9420    0.8810   -0.0200 ca        1 LIG     -0.023000
      5 C4         -0.8690    0.0150   -0.0360 ca        1 LIG     -0.405500
      6 N           0.3620   -2.3910   -0.2330 n3        1 LIG     -0.901100
      7 C5          1.4370   -1.6660    0.4760 c3        1 LIG      0.498000
      8 N1          1.5580   -0.3230   -0.0830 nh        1 LIG     -0.676000
      9 C6          0.4330    0.4910   -0.0180 ca        1 LIG      0.254600
     10 O          -2.7860    3.1080    0.0620 oh        1 LIG     -0.492100
     11 S          -1.1620   -1.7300   -0.0540 sy        1 LIG      1.523200
     12 O1         -1.6170   -2.0860    1.2450 o         1 LIG     -0.650300
     13 O2         -1.8800   -2.0170   -1.2460 o         1 LIG     -0.650300
     14 C7          2.7380    0.3670    0.4560 cx        1 LIG      0.138500
     15 C8          3.3720    1.4610   -0.4050 cx        1 LIG     -0.123400
     16 C9          4.0800    0.1160   -0.2330 cx        1 LIG     -0.123400
     17 H           1.5990    2.2450    0.1070 ha        1 LIG      0.145000
     18 H1         -0.2690    3.7560    0.1520 ha        1 LIG      0.137000
     19 H2         -2.9040    0.5100   -0.0570 ha        1 LIG      0.167000
     20 H3          0.5890   -2.4020   -1.2270 hn        1 LIG      0.457800
     21 H4          2.3620   -2.1890    0.3540 h2        1 LIG      0.064700
     22 H5          1.2020   -1.6030    1.5180 h2        1 LIG      0.064700
     23 H6         -2.6380    4.0320    0.1060 ho        1 LIG      0.417000
     24 H7          2.3810    0.3080    1.4630 h1        1 LIG      0.076700
     25 H8          3.7730    2.3400    0.0560 hc        1 LIG      0.081200
     26 H9          3.0520    2.0460   -1.2420 hc        1 LIG      0.081200
     27 H10         4.1400   -0.5660   -1.0550 hc        1 LIG      0.081200
     28 H11         5.0520   -0.1910    0.0930 hc        1 LIG      0.081200
@<TRIPOS>BOND
     1    1    2 ar  
     2    3   10 1   
     3    3    2 ar  
     4    4    3 ar  
     5    5    4 ar  
     6    5    9 ar  
     7    6   11 1   
     8    6    7 1   
     9    7    8 1   
    10    8    9 1   
    11    8   14 1   
    12    9    1 ar  
    13   11   12 2   
    14   11    5 1   
    15   13   11 2   
    16   14   15 1   
    17   16   14 1   
    18   16   15 1   
    19    1   17 1   
    20    2   18 1   
    21    4   19 1   
    22    6   20 1   
    23    7   21 1   
    24    7   22 1   
    25   10   23 1   
    26   14   24 1   
    27   15   25 1   
    28   15   26 1   
    29   16   27 1   
    30   16   28 1   
@<TRIPOS>SUBSTRUCTURE
     1 LIG         1 TEMP              0 ****  ****    0 ROOT
