@<TRIPOS>MOLECULE
BES
   46    46     1     0     0
SMALL
bcc


@<TRIPOS>ATOM
      1 N           0.3900   -1.3210   -1.5410 N.4       0 UNK     -1.111600
      2 C           0.7360    0.0880   -1.3140 C.3       0 UNK      0.145500
      3 C1          1.3020    0.6870   -2.6030 C.3       0 UNK     -0.074100
      4 C2          0.2700    0.5930   -3.6970 C.a       0 UNK     -0.089300
      5 C3         -0.6310    1.6230   -3.8870 C.a       0 UNK     -0.130000
      6 C4          0.2290   -0.5210   -4.5130 C.a       0 UNK     -0.130000
      7 C5         -1.5780    1.5360   -4.8910 C.a       0 UNK     -0.124000
      8 C6         -0.7200   -0.6100   -5.5140 C.a       0 UNK     -0.124000
      9 C7         -1.6220    0.4190   -5.7040 C.a       0 UNK     -0.127000
     10 C8          1.7830    0.1840   -0.2030 C.3       0 UNK      0.086100
     11 O           2.9550   -0.5370   -0.5900 O.h       0 UNK     -0.586800
     12 C9          1.2250   -0.4060    1.0650 C.        0 UNK      0.651100
     13 O1          1.7770   -1.3510    1.5870 O.3       0 UNK     -0.631100
     14 N           0.1140    0.1160    1.6200 N.        1 LEU     -0.554900
     15 CA         -0.4270   -0.4570    2.8540 C.3       1 LEU      0.017700
     16 CB         -1.1330    0.6360    3.6580 C.3       1 LEU     -0.081400
     17 CG         -0.1310    1.7390    4.0060 C.3       1 LEU     -0.068700
     18 CD1        -0.8360    2.8320    4.8110 C.3       1 LEU     -0.093100
     19 CD2         1.0080    1.1480    4.8380 C.3       1 LEU     -0.093100
     20 C          -1.4140   -1.5440    2.5110 C.        1 LEU      0.858600
     21 O          -2.1200   -1.4740    1.3720 O.3       1 LEU     -0.562300
     22 OXT        -1.5690   -2.4780    3.2620 O.3       1 LEU     -0.562300
     23 H          -0.3080   -1.3850   -2.2820 H         0 UNK      0.393133
     24 H1          0.0120   -1.7210   -0.6820 H         0 UNK      0.393133
     25 H2          1.2260   -1.8360   -1.8170 H         0 UNK      0.393133
     26 H3         -0.1410    0.6290   -1.0240 H         0 UNK      0.060700
     27 H4          2.1790    0.1460   -2.8930 H         0 UNK      0.064700
     28 H5          1.5540    1.7140   -2.4380 H         0 UNK      0.064700
     29 H6         -0.5970    2.4570   -3.2800 H         0 UNK      0.130000
     30 H7          0.9070   -1.2870   -4.3750 H         0 UNK      0.130000
     31 H8         -2.2520    2.3050   -5.0330 H         0 UNK      0.134500
     32 H9         -0.7550   -1.4450   -6.1190 H         0 UNK      0.134500
     33 H10        -2.3290    0.3540   -6.4530 H         0 UNK      0.135000
     34 H11         2.0350    1.2110   -0.0370 H         0 UNK      0.091700
     35 H12         2.7270   -1.4680   -0.7410 H         0 UNK      0.433000
     36 H          -0.3340    0.8830    1.1960 H         1 LEU      0.324500
     37 HA          0.3710   -0.8690    3.4360 H         1 LEU      0.095700
     38 HB1        -1.5290    0.2170    4.5590 H         1 LEU      0.068200
     39 HB2        -1.9310    1.0480    3.0760 H         1 LEU      0.068200
     40 HG          0.2650    2.1590    3.1050 H         1 LEU      0.047700
     41 HD11       -1.2320    2.4120    5.7120 H         1 LEU      0.037867
     42 HD12       -1.6330    3.2450    4.2290 H         1 LEU      0.037867
     43 HD13       -0.1360    3.6030    5.0550 H         1 LEU      0.037867
     44 HD21        0.6110    0.7280    5.7390 H         1 LEU      0.037867
     45 HD22        1.7090    1.9190    5.0820 H         1 LEU      0.037867
     46 HD23        1.5010    0.3830    4.2750 H         1 LEU      0.037867
@<TRIPOS>BOND
     1    1    2 1   
     2    2    3 1   
     3    2   10 1   
     4    3    4 1   
     5    4    5 ar  
     6    4    6 ar  
     7    5    7 ar  
     8    6    8 ar  
     9    7    9 ar  
    10    8    9 ar  
    11   10   11 1   
    12   10   12 1   
    13   12   13 2   
    14   12   14 1   
    15   14   15 1   
    16   15   16 1   
    17   15   20 1   
    18   16   17 1   
    19   17   18 1   
    20   17   19 1   
    21   20   21 1   
    22   20   22 1   
    23    1   23 1   
    24    1   24 1   
    25    1   25 1   
    26    2   26 1   
    27    3   27 1   
    28    3   28 1   
    29    5   29 1   
    30    6   30 1   
    31    7   31 1   
    32    8   32 1   
    33    9   33 1   
    34   10   34 1   
    35   11   35 1   
    36   14   36 1   
    37   15   37 1   
    38   16   38 1   
    39   16   39 1   
    40   17   40 1   
    41   18   41 1   
    42   18   42 1   
    43   18   43 1   
    44   19   44 1   
    45   19   45 1   
    46   19   46 1   
@<TRIPOS>SUBSTRUCTURE
     1 UNK         1 TEMP              0 ****  ****    0 ROOT
