@<TRIPOS>MOLECULE
12M
   22    22     1     0     0
SMALL
bcc


@<TRIPOS>ATOM
      1 C          -0.4800    2.7410    0.7590 c3        1 LIG     -0.091100
      2 C1         -0.1190    2.0590   -0.5620 c3        1 LIG     -0.040100
      3 C2          0.4650    0.6980   -0.2810 ca        1 LIG     -0.066300
      4 C3          1.8360    0.5370   -0.2040 ca        1 LIG     -0.130000
      5 C4          2.3720   -0.7110    0.0530 ca        1 LIG     -0.125000
      6 C5          1.5370   -1.7980    0.2340 ca        1 LIG     -0.132000
      7 C6          0.1670   -1.6360    0.1570 ca        1 LIG     -0.121000
      8 C7         -0.3700   -0.3880   -0.0960 ca        1 LIG     -0.126300
      9 C8         -1.8640   -0.2120   -0.1790 c3        1 LIG      0.171700
     10 O          -2.5040   -1.4710    0.0370 oh        1 LIG     -0.597800
     11 H          -0.8950    3.7070    0.5600 hc        1 LIG      0.037367
     12 H1          0.4000    2.8470    1.3580 hc        1 LIG      0.037367
     13 H2         -1.1980    2.1460    1.2830 hc        1 LIG      0.037367
     14 H3          0.5990    2.6540   -1.0860 hc        1 LIG      0.047200
     15 H4         -0.9990    1.9530   -1.1610 hc        1 LIG      0.047200
     16 H5          2.4590    1.3490   -0.3380 ha        1 LIG      0.131000
     17 H6          3.3950   -0.8310    0.1100 ha        1 LIG      0.132000
     18 H7          1.9370   -2.7300    0.4260 ha        1 LIG      0.133000
     19 H8         -0.4560   -2.4480    0.2890 ha        1 LIG      0.144000
     20 H9         -2.1260    0.1600   -1.1470 h1        1 LIG      0.055200
     21 H10        -2.1830    0.4840    0.5690 h1        1 LIG      0.055200
     22 H11        -2.2140   -2.1020   -0.6410 ho        1 LIG      0.401000
@<TRIPOS>BOND
     1    1    2 1   
     2    2    3 1   
     3    3    4 ar  
     4    3    8 ar  
     5    4    5 ar  
     6    5    6 ar  
     7    6    7 ar  
     8    7    8 ar  
     9    8    9 1   
    10    9   10 1   
    11    1   11 1   
    12    1   12 1   
    13    1   13 1   
    14    2   14 1   
    15    2   15 1   
    16    4   16 1   
    17    5   17 1   
    18    6   18 1   
    19    7   19 1   
    20    9   20 1   
    21    9   21 1   
    22   10   22 1   
@<TRIPOS>SUBSTRUCTURE
     1 LIG         1 TEMP              0 ****  ****    0 ROOT
