@<TRIPOS>MOLECULE
H53
   35    36     1     0     0
SMALL
bcc


@<TRIPOS>ATOM
      1 O           0.7120    1.0630    0.0720 O.2       1 LIG     -0.408600
      2 C           2.0930    0.9560    0.4130 C.3       1 LIG      0.065100
      3 C1          2.7720   -0.0700   -0.4980 C.3       1 LIG      0.086100
      4 C2          2.1130   -1.4380   -0.2880 C.3       1 LIG      0.065100
      5 C3          0.6010   -1.2880   -0.4900 C.3       1 LIG      0.091100
      6 C4          0.0850   -0.1700    0.4190 C.3       1 LIG      0.195400
      7 C5         -1.4070   -0.0370    0.2510 C.a       1 LIG     -0.119300
      8 C6         -2.2610   -0.8560    0.9750 C.a       1 LIG      0.114100
      9 O1         -1.7530   -1.7740    1.8400 O.h       1 LIG     -0.512100
     10 C7         -3.6350   -0.7300    0.8240 C.a       1 LIG     -0.121000
     11 C8         -4.1510    0.2020   -0.0550 C.a       1 LIG     -0.176000
     12 C9         -3.2960    1.0170   -0.7830 C.a       1 LIG      0.089100
     13 O2         -3.8040    1.9340   -1.6480 O.h       1 LIG     -0.499100
     14 C10        -1.9230    0.8950   -0.6280 C.a       1 LIG     -0.104000
     15 O3         -0.0520   -2.5140   -0.1560 O.h       1 LIG     -0.611800
     16 O4          2.6320   -2.3740   -1.2340 O.h       1 LIG     -0.589800
     17 O5          4.1610   -0.1530   -0.1710 O.h       1 LIG     -0.576800
     18 C11         2.7680    2.3180    0.2370 C.3       1 LIG      0.139400
     19 O6          2.2160    3.2470    1.1710 O.h       1 LIG     -0.593800
     20 H           2.1830    0.6400    1.4310 H         1 LIG      0.058700
     21 H1          2.6670    0.2280   -1.5200 H         1 LIG      0.092700
     22 H2          2.3180   -1.7940    0.7000 H         1 LIG      0.086700
     23 H3          0.3960   -1.0480   -1.5120 H         1 LIG      0.060700
     24 H4          0.3140   -0.4080    1.4370 H         1 LIG      0.062700
     25 H5         -0.8250   -1.8590    1.9420 H         1 LIG      0.439000
     26 H6         -4.2710   -1.3330    1.3690 H         1 LIG      0.153000
     27 H7         -5.1730    0.2920   -0.1700 H         1 LIG      0.137000
     28 H8         -4.7310    2.0160   -1.7520 H         1 LIG      0.418000
     29 H9         -1.2870    1.5010   -1.1700 H         1 LIG      0.161000
     30 H10         0.1310   -2.7360    0.7700 H         1 LIG      0.432000
     31 H11         2.4500   -2.0590   -2.1330 H         1 LIG      0.413000
     32 H12         4.2600   -0.4230    0.7550 H         1 LIG      0.408000
     33 H13         2.6020    2.6720   -0.7590 H         1 LIG      0.065200
     34 H14         3.8190    2.2200    0.4100 H         1 LIG      0.065200
     35 H15         1.2630    3.3360    1.0140 H         1 LIG      0.414000
@<TRIPOS>BOND
     1    1    2 1   
     2    1    6 1   
     3    2    3 1   
     4    2   18 1   
     5    3    4 1   
     6    3   17 1   
     7    4    5 1   
     8    4   16 1   
     9    5    6 1   
    10    5   15 1   
    11    6    7 1   
    12    7    8 ar  
    13    7   14 ar  
    14    8    9 1   
    15    8   10 ar  
    16   10   11 ar  
    17   11   12 ar  
    18   12   13 1   
    19   12   14 ar  
    20   18   19 1   
    21    2   20 1   
    22    3   21 1   
    23    4   22 1   
    24    5   23 1   
    25    6   24 1   
    26    9   25 1   
    27   10   26 1   
    28   11   27 1   
    29   13   28 1   
    30   14   29 1   
    31   15   30 1   
    32   16   31 1   
    33   17   32 1   
    34   18   33 1   
    35   18   34 1   
    36   19   35 1   
@<TRIPOS>SUBSTRUCTURE
     1 LIG         1 TEMP              0 ****  ****    0 ROOT
