@<TRIPOS>MOLECULE
RET
   49    49     1     0     0
SMALL
bcc


@<TRIPOS>ATOM
      1 C          -4.3270    0.9090   -0.4800 c3        1 LIG     -0.006800
      2 C1         -5.4660    0.1320   -1.1430 c3        1 LIG     -0.069400
      3 C2         -5.9980   -0.9010   -0.1420 c3        1 LIG     -0.076400
      4 C3         -4.9210   -1.9660    0.0750 c3        1 LIG     -0.042200
      5 C4         -3.6040   -1.3140    0.3800 c2        1 LIG     -0.092400
      6 C5         -3.3400   -0.0420    0.1310 ce        1 LIG     -0.090200
      7 C6         -2.0510    0.4500    0.4580 ce        1 LIG     -0.098000
      8 C7         -0.9440   -0.1450   -0.0590 cf        1 LIG     -0.148000
      9 C8          0.3340    0.3150    0.3000 cf        1 LIG     -0.045200
     10 C9          1.4460   -0.2830   -0.2200 ce        1 LIG     -0.152000
     11 C10         2.7200    0.1760    0.1380 ce        1 LIG     -0.094000
     12 C11         3.8420   -0.4270   -0.3870 cf        1 LIG     -0.156000
     13 C12         5.1150    0.0310   -0.0300 cf        1 LIG      0.002800
     14 C13         6.2380   -0.5730   -0.5550 ce        1 LIG     -0.277200
     15 C14         7.5100   -0.1150   -0.1980 c         1 LIG      0.562100
     16 O           8.5000   -0.6480   -0.6610 o         1 LIG     -0.531100
     17 C15        -3.6200    1.7680   -1.5310 c3        1 LIG     -0.084100
     18 C16        -4.8990    1.8160    0.6110 c3        1 LIG     -0.084100
     19 C17        -2.5220   -2.1550    1.0060 c3        1 LIG     -0.065900
     20 C18         0.4780    1.4690    1.2590 c3        1 LIG     -0.066900
     21 C19         5.2590    1.1850    0.9290 c3        1 LIG     -0.078900
     22 H          -5.1020   -0.3670   -2.0170 hc        1 LIG      0.043200
     23 H1         -6.2490    0.8020   -1.4290 hc        1 LIG      0.043200
     24 H2         -6.8840   -1.3580   -0.5310 hc        1 LIG      0.042200
     25 H3         -6.2340   -0.4240    0.7860 hc        1 LIG      0.042200
     26 H4         -4.8260   -2.5580   -0.8110 hc        1 LIG      0.048700
     27 H5         -5.2040   -2.5870    0.9000 hc        1 LIG      0.048700
     28 H6         -1.9530    1.2610    1.0890 ha        1 LIG      0.127000
     29 H7         -1.0420   -0.9350   -0.7160 ha        1 LIG      0.130000
     30 H8          1.3480   -1.0730   -0.8770 ha        1 LIG      0.127000
     31 H9          2.8180    0.9660    0.7950 ha        1 LIG      0.126000
     32 H10         3.7440   -1.2170   -1.0440 ha        1 LIG      0.132000
     33 H11         6.1400   -1.3630   -1.2120 ha        1 LIG      0.146000
     34 H12         7.6090    0.6750    0.4580 h4        1 LIG     -0.007800
     35 H13        -3.2180    1.1370   -2.2960 hc        1 LIG      0.036033
     36 H14        -2.8260    2.3170   -1.0680 hc        1 LIG      0.036033
     37 H15        -4.3210    2.4510   -1.9640 hc        1 LIG      0.036033
     38 H16        -5.3940    1.2190    1.3480 hc        1 LIG      0.036033
     39 H17        -5.5990    2.4990    0.1760 hc        1 LIG      0.036033
     40 H18        -4.1040    2.3650    1.0720 hc        1 LIG      0.036033
     41 H19        -2.8820   -3.1530    1.1450 hc        1 LIG      0.044700
     42 H20        -2.2500   -1.7380    1.9530 hc        1 LIG      0.044700
     43 H21        -1.6660   -2.1710    0.3640 hc        1 LIG      0.044700
     44 H22        -0.4920    1.8060    1.5590 hc        1 LIG      0.047033
     45 H23         1.0010    2.2690    0.7780 hc        1 LIG      0.047033
     46 H24         1.0270    1.1510    2.1200 hc        1 LIG      0.047033
     47 H25         4.2890    1.5230    1.2290 hc        1 LIG      0.052367
     48 H26         5.7820    1.9850    0.4480 hc        1 LIG      0.052367
     49 H27         5.8080    0.8670    1.7900 hc        1 LIG      0.052367
@<TRIPOS>BOND
     1    1    2 1   
     2    1    6 1   
     3    1   17 1   
     4    1   18 1   
     5    2    3 1   
     6    3    4 1   
     7    4    5 1   
     8    5    6 2   
     9    5   19 1   
    10    6    7 1   
    11    7    8 2   
    12    8    9 1   
    13    9   10 2   
    14    9   20 1   
    15   10   11 1   
    16   11   12 2   
    17   12   13 1   
    18   13   14 2   
    19   13   21 1   
    20   14   15 1   
    21   15   16 2   
    22    2   22 1   
    23    2   23 1   
    24    3   24 1   
    25    3   25 1   
    26    4   26 1   
    27    4   27 1   
    28    7   28 1   
    29    8   29 1   
    30   10   30 1   
    31   11   31 1   
    32   12   32 1   
    33   14   33 1   
    34   15   34 1   
    35   17   35 1   
    36   17   36 1   
    37   17   37 1   
    38   18   38 1   
    39   18   39 1   
    40   18   40 1   
    41   19   41 1   
    42   19   42 1   
    43   19   43 1   
    44   20   44 1   
    45   20   45 1   
    46   20   46 1   
    47   21   47 1   
    48   21   48 1   
    49   21   49 1   
@<TRIPOS>SUBSTRUCTURE
     1 LIG         1 TEMP              0 ****  ****    0 ROOT
