@<TRIPOS>MOLECULE
PFT
   32    34     1     0     0
SMALL
bcc


@<TRIPOS>ATOM
      1 N           0.7460    0.7570    0.2660 N.        1 LIG     -0.440800
      2 C          -0.4860    1.2760    0.4410 C.        1 LIG      0.675700
      3 C1          2.0140    1.4920    0.2840 C.3       1 LIG      0.120300
      4 C2          1.0740   -0.6520    0.0260 C.3       1 LIG      0.120300
      5 C3         -1.6740    0.4190    0.2880 C.a       1 LIG     -0.266600
      6 O          -0.6150    2.4510    0.7260 O.3       1 LIG     -0.627100
      7 C4          3.1230    0.4990    0.0450 C.a       1 LIG     -0.108300
      8 C5          2.5720   -0.7580   -0.1070 C.a       1 LIG     -0.108300
      9 C6         -2.7700    0.8630   -0.4680 C.a       1 LIG      0.231100
     10 C7         -1.7140   -0.8420    0.8910 C.a       1 LIG     -0.031000
     11 C8          4.4950    0.6650   -0.0340 C.a       1 LIG     -0.105500
     12 C9          3.3920   -1.8490   -0.3370 C.a       1 LIG     -0.105500
     13 C10        -3.8830    0.0520   -0.6070 C.a       1 LIG     -0.268000
     14 O1         -2.7380    2.0840   -1.0600 O.h       1 LIG     -0.502100
     15 C11        -2.8250   -1.6390    0.7450 C.a       1 LIG     -0.206000
     16 C12         5.3130   -0.4240   -0.2660 C.a       1 LIG     -0.126000
     17 C13         4.7610   -1.6820   -0.4170 C.a       1 LIG     -0.126000
     18 C14        -3.9130   -1.1950   -0.0010 C.a       1 LIG      0.183100
     19 O2         -5.0060   -1.9870   -0.1390 O.h       1 LIG     -0.490100
     20 H           2.1470    1.9650    1.2340 H         1 LIG      0.071450
     21 H1          2.0190    2.2490   -0.4720 H         1 LIG      0.071450
     22 H2          0.6040   -0.9870   -0.8750 H         1 LIG      0.071450
     23 H3          0.7260   -1.2610    0.8340 H         1 LIG      0.071450
     24 H4         -0.9100   -1.1750    1.4460 H         1 LIG      0.146000
     25 H5          4.9080    1.6040    0.0810 H         1 LIG      0.139000
     26 H6          2.9800   -2.7890   -0.4490 H         1 LIG      0.139000
     27 H7         -4.6910    0.3750   -1.1620 H         1 LIG      0.158000
     28 H8         -1.9840    2.6310   -0.9650 H         1 LIG      0.460000
     29 H9         -2.8520   -2.5700    1.1900 H         1 LIG      0.157000
     30 H10         6.3350   -0.2980   -0.3270 H         1 LIG      0.135000
     31 H11         5.3710   -2.4960   -0.5890 H         1 LIG      0.135000
     32 H12        -5.7390   -1.6900   -0.6410 H         1 LIG      0.427000
@<TRIPOS>BOND
     1    1    2 1   
     2    1    3 1   
     3    1    4 1   
     4    2    5 1   
     5    2    6 2   
     6    3    7 1   
     7    4    8 1   
     8    5    9 ar  
     9    5   10 ar  
    10    7    8 ar  
    11    7   11 ar  
    12    8   12 ar  
    13    9   13 ar  
    14    9   14 1   
    15   10   15 ar  
    16   11   16 ar  
    17   12   17 ar  
    18   13   18 ar  
    19   15   18 ar  
    20   16   17 ar  
    21   18   19 1   
    22    3   20 1   
    23    3   21 1   
    24    4   22 1   
    25    4   23 1   
    26   10   24 1   
    27   11   25 1   
    28   12   26 1   
    29   13   27 1   
    30   14   28 1   
    31   15   29 1   
    32   16   30 1   
    33   17   31 1   
    34   19   32 1   
@<TRIPOS>SUBSTRUCTURE
     1 LIG         1 TEMP              0 ****  ****    0 ROOT
