@<TRIPOS>MOLECULE
NG1
   33    33     1     0     0
SMALL
bcc


@<TRIPOS>ATOM
      1 P          -0.3260   -2.4020    0.2330 p5        1 LIG      1.327900
      2 O          -1.6700   -2.5090   -0.6470 o         1 LIG     -0.904167
      3 O1         -0.4410   -3.3760    1.5100 o         1 LIG     -0.904167
      4 O2          0.8360   -2.8040   -0.5910 o         1 LIG     -0.904167
      5 C           0.0830   -0.0890   -0.4370 c3        1 LIG      0.396900
      6 C1          0.9770    1.1010   -0.0810 c3        1 LIG      0.016700
      7 C2          0.2990    1.9260    1.0180 c3        1 LIG      0.106100
      8 C3         -1.1170    2.2890    0.5570 c3        1 LIG      0.095100
      9 C4         -1.8530    1.0090    0.1560 c3        1 LIG      0.074100
     10 C5         -3.2790    1.3570   -0.2760 c3        1 LIG      0.148400
     11 C6          3.2480    0.3150   -0.4810 c         1 LIG      0.647100
     12 C7          4.5810   -0.1860    0.0130 c3        1 LIG     -0.162100
     13 N           2.2730    0.6140    0.3990 n         1 LIG     -0.537900
     14 O3         -0.1310   -0.8840    0.7320 os        1 LIG     -0.558200
     15 O4          1.0510    3.1190    1.2540 oh        1 LIG     -0.627800
     16 O5         -1.0430    3.1720   -0.5640 oh        1 LIG     -0.624800
     17 O6         -1.1720    0.3790   -0.9280 os        1 LIG     -0.483600
     18 O7         -4.0040    0.1540   -0.5400 oh        1 LIG     -0.639800
     19 O8          3.0540    0.4480   -1.6710 o         1 LIG     -0.745100
     20 H           0.5600   -0.6770   -1.1930 h2        1 LIG      0.114700
     21 H1          1.1290    1.7110   -0.9470 h1        1 LIG      0.031700
     22 H2          0.2520    1.3600    1.9250 h1        1 LIG      0.093700
     23 H3         -1.6440    2.7740    1.3520 h1        1 LIG      0.053700
     24 H4         -1.8810    0.3420    0.9920 h1        1 LIG      0.096700
     25 H5         -3.2470    1.9560   -1.1620 h1        1 LIG      0.021700
     26 H6         -3.7650    1.9020    0.5060 h1        1 LIG      0.021700
     27 H7          4.5680   -0.2390    1.0820 hc        1 LIG      0.049033
     28 H8          5.3530    0.4850   -0.3020 hc        1 LIG      0.049033
     29 H9          4.7680   -1.1590   -0.3900 hc        1 LIG      0.049033
     30 H10         2.4310    0.5050    1.3650 hn        1 LIG      0.424500
     31 H11         1.0990    3.6380    0.4360 ho        1 LIG      0.421000
     32 H12        -0.5660    2.7360   -1.2880 ho        1 LIG      0.410000
     33 H13        -3.5630   -0.3400   -1.2490 ho        1 LIG      0.442000
@<TRIPOS>BOND
     1    1    2 1   
     2    1    3 1   
     3    1    4 1   
     4    1   14 1   
     5    5    6 1   
     6    5   14 1   
     7    5   17 1   
     8    6    7 1   
     9    6   13 1   
    10    7    8 1   
    11    7   15 1   
    12    8    9 1   
    13    8   16 1   
    14    9   10 1   
    15    9   17 1   
    16   10   18 1   
    17   11   12 1   
    18   11   13 1   
    19   11   19 2   
    20    5   20 1   
    21    6   21 1   
    22    7   22 1   
    23    8   23 1   
    24    9   24 1   
    25   10   25 1   
    26   10   26 1   
    27   12   27 1   
    28   12   28 1   
    29   12   29 1   
    30   13   30 1   
    31   15   31 1   
    32   16   32 1   
    33   18   33 1   
@<TRIPOS>SUBSTRUCTURE
     1 LIG         1 TEMP              0 ****  ****    0 ROOT
