@<TRIPOS>MOLECULE
16D
   26    25     1     0     0
SMALL
bcc


@<TRIPOS>ATOM
      1 N          -0.2860   -0.0150    4.3320 N.4       1 LIG     -0.838600
      2 C           0.5280   -0.0150    3.1090 C.3       1 LIG      0.099800
      3 C1         -0.3890   -0.0150    1.8850 C.3       1 LIG     -0.109400
      4 C2          0.4580   -0.0150    0.6120 C.3       1 LIG     -0.078400
      5 C3         -0.4580   -0.0150   -0.6120 C.3       1 LIG     -0.078400
      6 C4          0.3890   -0.0150   -1.8850 C.3       1 LIG     -0.109400
      7 C5         -0.5280   -0.0150   -3.1090 C.3       1 LIG      0.099800
      8 N1          0.2860   -0.0150   -4.3320 N.4       1 LIG     -0.838600
      9 H           0.3260   -0.0150    5.1480 H         1 LIG      0.469133
     10 H1         -0.8750   -0.8480    4.3490 H         1 LIG      0.469133
     11 H2         -0.8750    0.8180    4.3490 H         1 LIG      0.469133
     12 H3          1.1450   -0.8890    3.0920 H         1 LIG      0.117700
     13 H4          1.1450    0.8590    3.0920 H         1 LIG      0.117700
     14 H5         -1.0060    0.8590    1.9020 H         1 LIG      0.075700
     15 H6         -1.0060   -0.8890    1.9020 H         1 LIG      0.075700
     16 H7          1.0750   -0.8890    0.5950 H         1 LIG      0.065700
     17 H8          1.0750    0.8590    0.5950 H         1 LIG      0.065700
     18 H9         -1.0750    0.8590   -0.5950 H         1 LIG      0.065700
     19 H10        -1.0750   -0.8890   -0.5950 H         1 LIG      0.065700
     20 H11         1.0060   -0.8890   -1.9020 H         1 LIG      0.075700
     21 H12         1.0060    0.8590   -1.9020 H         1 LIG      0.075700
     22 H13        -1.1450    0.8590   -3.0920 H         1 LIG      0.117700
     23 H14        -1.1450   -0.8890   -3.0920 H         1 LIG      0.117700
     24 H15         0.8740    0.8180   -4.3490 H         1 LIG      0.469133
     25 H16        -0.3260   -0.0150   -5.1480 H         1 LIG      0.469133
     26 H17         0.8750   -0.8480   -4.3480 H         1 LIG      0.469133
@<TRIPOS>BOND
     1    1    2 1   
     2    2    3 1   
     3    3    4 1   
     4    4    5 1   
     5    5    6 1   
     6    6    7 1   
     7    7    8 1   
     8    1    9 1   
     9    1   10 1   
    10    1   11 1   
    11    2   12 1   
    12    2   13 1   
    13    3   14 1   
    14    3   15 1   
    15    4   16 1   
    16    4   17 1   
    17    5   18 1   
    18    5   19 1   
    19    6   20 1   
    20    6   21 1   
    21    7   22 1   
    22    7   23 1   
    23    8   24 1   
    24    8   25 1   
    25    8   26 1   
@<TRIPOS>SUBSTRUCTURE
     1 LIG         1 TEMP              0 ****  ****    0 ROOT
