@<TRIPOS>MOLECULE
C38
   32    33     1     0     0
SMALL
bcc


@<TRIPOS>ATOM
      1 O           2.7030   -0.8340   -6.0420 o         1 LIG     -0.929167
      2 P           1.3570   -0.0680   -5.6020 p5        1 LIG      1.329900
      3 O1          1.6810    1.3280   -5.2360 o         1 LIG     -0.929167
      4 O2          0.3120   -0.0730   -6.8270 o         1 LIG     -0.929167
      5 O3          0.7030   -0.8160   -4.3360 os        1 LIG     -0.551200
      6 C          -0.4810   -0.0930   -3.9950 c3        1 LIG      0.227400
      7 C1         -1.1550   -0.7560   -2.7930 c3        1 LIG      0.049100
      8 O4         -0.3240   -0.6470   -1.6150 os        1 LIG     -0.442600
      9 C2         -2.4450    0.0070   -2.4000 c3        1 LIG      0.155100
     10 O5         -3.5630   -0.4530   -3.1600 oh        1 LIG     -0.669800
     11 C3         -2.6010   -0.3650   -0.9060 c3        1 LIG     -0.128400
     12 C4         -1.1880   -0.8080   -0.4780 c3        1 LIG      0.292500
     13 N          -0.7170    0.0270    0.6280 n         1 LIG     -0.361000
     14 C5         -0.6050    1.3580    0.4610 c         1 LIG      0.826900
     15 O6         -0.8970    1.8540   -0.6140 o         1 LIG     -0.650500
     16 N1         -0.1790    2.1420    1.4490 nc        1 LIG     -0.753100
     17 C6          0.1440    1.6290    2.6290 cd        1 LIG      0.752500
     18 N2          0.5820    2.4490    3.6430 nh        1 LIG     -0.906800
     19 C7          0.0430    0.2380    2.8360 cd        1 LIG     -0.338800
     20 C8         -0.3960   -0.5450    1.8220 cc        1 LIG      0.145600
     21 I           0.5480   -0.6010    4.6870 i         1 LIG     -0.113800
     22 H          -1.1530   -0.0960   -4.8270 h1        1 LIG     -0.004800
     23 H1         -0.2240    0.9160   -3.7480 h1        1 LIG     -0.004800
     24 H2         -1.3400   -1.7700   -3.0790 h1        1 LIG      0.080700
     25 H3         -2.3940    1.0610   -2.5790 h1        1 LIG      0.101700
     26 H4         -3.6640   -1.4100   -3.0390 ho        1 LIG      0.501000
     27 H5         -3.3020   -1.1640   -0.7850 hc        1 LIG      0.055200
     28 H6         -2.9720    0.4480   -0.3170 hc        1 LIG      0.055200
     29 H7         -1.1950   -1.8260   -0.1490 h2        1 LIG      0.085700
     30 H8          0.6510    3.4200    3.4960 hn        1 LIG      0.410800
     31 H9          0.8260    2.0650    4.5160 hn        1 LIG      0.410800
     32 H10        -0.4860   -1.5650    1.9520 h4        1 LIG      0.232000
@<TRIPOS>BOND
     1    1    2 1   
     2    2    3 1   
     3    2    4 1   
     4    2    5 1   
     5    5    6 1   
     6    6    7 1   
     7    7    8 1   
     8    7    9 1   
     9    8   12 1   
    10    9   10 1   
    11    9   11 1   
    12   11   12 1   
    13   12   13 1   
    14   13   14 1   
    15   13   20 1   
    16   14   15 2   
    17   14   16 1   
    18   16   17 2   
    19   17   18 1   
    20   17   19 1   
    21   19   20 2   
    22   19   21 1   
    23    6   22 1   
    24    6   23 1   
    25    7   24 1   
    26    9   25 1   
    27   10   26 1   
    28   11   27 1   
    29   11   28 1   
    30   12   29 1   
    31   18   30 1   
    32   18   31 1   
    33   20   32 1   
@<TRIPOS>SUBSTRUCTURE
     1 LIG         1 TEMP              0 ****  ****    0 ROOT
