@<TRIPOS>MOLECULE
26J
   56    59     1     0     0
SMALL
bcc


@<TRIPOS>ATOM
      1 N          -2.9880   -2.9390   -0.1180 nh        1 LIG     -0.444100
      2 O          -3.9410   -3.9830   -0.0350 oh        1 LIG     -0.402300
      3 C          -3.4050   -1.6060   -0.0710 ca        1 LIG      0.062600
      4 C1         -2.4860   -0.5780   -0.1510 ca        1 LIG     -0.044100
      5 S          -0.7400   -0.8460   -0.3130 ss        1 LIG      0.078900
      6 C2          0.1620    0.6360   -0.3880 cc        1 LIG      0.574100
      7 N1         -0.5670    1.7440   -0.3140 nd        1 LIG     -0.720100
      8 C3         -1.8710    1.8330   -0.1930 c         1 LIG      0.706100
      9 O1         -2.3100    2.9700   -0.1460 o         1 LIG     -0.490100
     10 C4         -2.8770    0.7760   -0.1060 ca        1 LIG     -0.160600
     11 C5         -4.2410    1.0640    0.0210 ca        1 LIG     -0.025000
     12 C6         -5.1540    0.0360    0.0990 ca        1 LIG     -0.147300
     13 C7         -6.6190    0.3610    0.2350 c3        1 LIG      0.690200
     14 F          -7.1930    0.4680   -1.0360 f         1 LIG     -0.223300
     15 F1         -7.2580   -0.6580    0.9500 f         1 LIG     -0.223300
     16 F2         -6.7670    1.5730    0.9180 f         1 LIG     -0.223300
     17 C8         -4.7540   -1.2910    0.0500 ca        1 LIG     -0.057000
     18 N2          1.5250    0.6600   -0.5130 nh        1 LIG     -0.662600
     19 C9          2.2970   -0.5890   -0.5980 c3        1 LIG      0.144800
     20 C10         3.4280   -0.5330    0.4360 c3        1 LIG      0.073300
     21 N3          4.2080    0.6960    0.2370 n4        1 LIG     -0.676400
     22 C11         3.3870    1.8920    0.4650 c3        1 LIG      0.073300
     23 C12         2.2550    1.9360   -0.5730 c3        1 LIG      0.144800
     24 C13         5.4020    0.7050    1.0930 c3        1 LIG      0.106800
     25 C14         6.4580   -0.2330    0.5060 c3        1 LIG     -0.088700
     26 C15         7.6480   -0.3240    1.4630 c3        1 LIG     -0.078400
     27 C16         8.7050   -1.2620    0.8760 c3        1 LIG     -0.077900
     28 C17         9.1770   -0.7170   -0.4740 c3        1 LIG     -0.084400
     29 C18         7.9870   -0.6260   -1.4310 c3        1 LIG     -0.077900
     30 C19         6.9300    0.3120   -0.8440 c3        1 LIG     -0.078400
     31 H          -2.0310   -3.1520   -0.2090 hn        1 LIG      0.394800
     32 H1         -4.8300   -3.6040    0.0510 ho        1 LIG      0.442000
     33 H2         -4.5620    2.0440    0.0560 ha        1 LIG      0.190000
     34 H3         -5.4570   -2.0440    0.1030 ha        1 LIG      0.186000
     35 H4          2.7100   -0.6920   -1.5800 h1        1 LIG      0.099950
     36 H5          1.6610   -1.4270   -0.4010 h1        1 LIG      0.099950
     37 H6          4.0650   -1.3840    0.3150 hx        1 LIG      0.117700
     38 H7          3.0130   -0.5380    1.4220 hx        1 LIG      0.117700
     39 H8          4.5170    0.7140   -0.7350 hn        1 LIG      0.441800
     40 H9          3.9950    2.7670    0.3680 hx        1 LIG      0.117700
     41 H10         2.9700    1.8580    1.4500 hx        1 LIG      0.117700
     42 H11         1.5900    2.7440   -0.3500 h1        1 LIG      0.099950
     43 H12         2.6580    2.0850   -1.5530 h1        1 LIG      0.099950
     44 H13         5.1380    0.3750    2.0760 hx        1 LIG      0.105200
     45 H14         5.7960    1.6980    1.1440 hx        1 LIG      0.105200
     46 H15         6.0350   -1.2060    0.3700 hc        1 LIG      0.066700
     47 H16         7.3180   -0.7050    2.4070 hc        1 LIG      0.045450
     48 H17         8.0710    0.6490    1.5990 hc        1 LIG      0.045450
     49 H18         8.2820   -2.2350    0.7400 hc        1 LIG      0.057200
     50 H19         9.5370   -1.3260    1.5460 hc        1 LIG      0.057200
     51 H20         9.9160   -1.3730   -0.8850 hc        1 LIG      0.059200
     52 H21         9.6000    0.2560   -0.3380 hc        1 LIG      0.059200
     53 H22         7.5640   -1.5990   -1.5670 hc        1 LIG      0.057200
     54 H23         8.3170   -0.2450   -2.3750 hc        1 LIG      0.057200
     55 H24         7.3530    1.2850   -0.7080 hc        1 LIG      0.045450
     56 H25         6.0980    0.3760   -1.5140 hc        1 LIG      0.045450
@<TRIPOS>BOND
     1    1    2 1   
     2    3    1 1   
     3    4    5 1   
     4    4    3 ar  
     5    6   18 1   
     6    6    5 1   
     7    7    6 2   
     8    8    7 1   
     9    8   10 1   
    10    9    8 2   
    11   10    4 ar  
    12   11   10 ar  
    13   11   12 ar  
    14   12   17 ar  
    15   13   12 1   
    16   13   14 1   
    17   15   13 1   
    18   16   13 1   
    19   17    3 ar  
    20   18   23 1   
    21   19   18 1   
    22   20   19 1   
    23   20   21 1   
    24   21   24 1   
    25   21   22 1   
    26   22   23 1   
    27   24   25 1   
    28   25   26 1   
    29   26   27 1   
    30   28   27 1   
    31   29   28 1   
    32   30   25 1   
    33   30   29 1   
    34    1   31 1   
    35    2   32 1   
    36   11   33 1   
    37   17   34 1   
    38   19   35 1   
    39   19   36 1   
    40   20   37 1   
    41   20   38 1   
    42   21   39 1   
    43   22   40 1   
    44   22   41 1   
    45   23   42 1   
    46   23   43 1   
    47   24   44 1   
    48   24   45 1   
    49   25   46 1   
    50   26   47 1   
    51   26   48 1   
    52   27   49 1   
    53   27   50 1   
    54   28   51 1   
    55   28   52 1   
    56   29   53 1   
    57   29   54 1   
    58   30   55 1   
    59   30   56 1   
@<TRIPOS>SUBSTRUCTURE
     1 LIG         1 TEMP              0 ****  ****    0 ROOT
