@<TRIPOS>MOLECULE
RWZ
   64    66     1     0     0
SMALL
bcc


@<TRIPOS>ATOM
      1 C           3.2200    2.4770    0.6830 c3        1 LIG     -0.082900
      2 C1          4.8920    4.0610   -0.5440 c3        1 LIG     -0.082900
      3 C2          6.0340   -2.8080    0.7550 c3        1 LIG     -0.103900
      4 C3          5.4820    1.7770    0.0860 c2        1 LIG     -0.223200
      5 C4          3.8200   -2.4930   -0.2240 c2        1 LIG     -0.337200
      6 C5          5.1290    0.4030    0.5940 c3        1 LIG     -0.055200
      7 C6          2.7550   -1.6350   -0.8570 c3        1 LIG      0.191000
      8 C7          0.5050   -0.7860   -0.5830 c3        1 LIG      0.074800
      9 C8         -0.7150   -0.7890    0.3400 c3        1 LIG      0.070800
     10 C9          5.3670   -0.6270   -0.5130 c3        1 LIG     -0.087200
     11 C10        -6.3080    0.1800   -0.5250 c3        1 LIG     -0.078400
     12 C11        -4.1960    1.3770   -1.1160 c3        1 LIG     -0.080900
     13 C12        -5.0030    1.3610    1.2480 c3        1 LIG     -0.080900
     14 C13        -4.2710   -1.1200   -1.1590 c3        1 LIG     -0.080900
     15 C14        -5.0780   -1.1360    1.2050 c3        1 LIG     -0.080900
     16 N           1.5660   -1.6150    0.0040 n4        1 LIG     -0.785000
     17 N1         -1.7760    0.0400   -0.2470 n4        1 LIG     -0.764000
     18 C15         4.5770    2.7240    0.0760 c2        1 LIG     -0.123400
     19 C16         5.0140   -2.0010   -0.0050 c2        1 LIG      0.055600
     20 C17        -5.0690    0.1590   -1.4230 c3        1 LIG     -0.070700
     21 C18        -5.8760    0.1420    0.9420 c3        1 LIG     -0.070700
     22 C19        -3.7640    1.3390    0.3510 c3        1 LIG     -0.078700
     23 C20        -3.8390   -1.1580    0.3080 c3        1 LIG     -0.078700
     24 C21        -2.9660    0.0610    0.6140 c3        1 LIG      0.130500
     25 H           3.1790    1.4810    1.0710 hc        1 LIG      0.056700
     26 H1          2.4660    2.5990   -0.0670 hc        1 LIG      0.056700
     27 H2          3.0510    3.1760    1.4750 hc        1 LIG      0.056700
     28 H3          4.0400    4.7030   -0.4600 hc        1 LIG      0.056700
     29 H4          5.1370    3.9260   -1.5770 hc        1 LIG      0.056700
     30 H5          5.7230    4.5030   -0.0350 hc        1 LIG      0.056700
     31 H6          5.6080   -3.7490    1.0340 hc        1 LIG      0.082700
     32 H7          6.3270   -2.2750    1.6350 hc        1 LIG      0.082700
     33 H8          6.8910   -2.9740    0.1360 hc        1 LIG      0.082700
     34 H9          6.4370    1.9720   -0.2540 ha        1 LIG      0.119000
     35 H10         3.6080   -3.4690    0.0370 ha        1 LIG      0.164000
     36 H11         4.0990    0.3840    0.8840 hc        1 LIG      0.085200
     37 H12         5.7420    0.1670    1.4390 hc        1 LIG      0.085200
     38 H13         2.4950   -2.0370   -1.8140 hx        1 LIG      0.104200
     39 H14         3.1250   -0.6380   -0.9770 hx        1 LIG      0.104200
     40 H15         0.2300   -1.1820   -1.5380 hx        1 LIG      0.118700
     41 H16         0.8600    0.2160   -0.7010 hx        1 LIG      0.118700
     42 H17        -0.4400   -0.3930    1.2950 hx        1 LIG      0.126200
     43 H18        -1.0700   -1.7910    0.4580 hx        1 LIG      0.126200
     44 H19         6.3970   -0.6080   -0.8030 hc        1 LIG      0.075200
     45 H20         4.7540   -0.3910   -1.3580 hc        1 LIG      0.075200
     46 H21        -6.9180   -0.6720   -0.7390 hc        1 LIG      0.075200
     47 H22        -6.8670    1.0740   -0.7090 hc        1 LIG      0.075200
     48 H23        -4.7540    2.2710   -1.3000 hc        1 LIG      0.065825
     49 H24        -3.3290    1.3610   -1.7430 hc        1 LIG      0.065825
     50 H25        -4.7010    1.3350    2.2740 hc        1 LIG      0.065825
     51 H26        -5.5610    2.2550    1.0630 hc        1 LIG      0.065825
     52 H27        -3.4040   -1.1360   -1.7860 hc        1 LIG      0.065825
     53 H28        -4.8820   -1.9720   -1.3730 hc        1 LIG      0.065825
     54 H29        -5.6890   -1.9880    0.9910 hc        1 LIG      0.065825
     55 H30        -4.7760   -1.1630    2.2310 hc        1 LIG      0.065825
     56 H31         1.8210   -1.2350    0.9160 hn        1 LIG      0.464300
     57 H32         1.2180   -2.5690    0.0990 hn        1 LIG      0.464300
     58 H33        -2.0310   -0.3410   -1.1590 hn        1 LIG      0.458800
     59 H34        -1.4270    0.9940   -0.3420 hn        1 LIG      0.458800
     60 H35        -5.3710    0.1860   -2.4490 hc        1 LIG      0.096200
     61 H36        -6.7420    0.1570    1.5700 hc        1 LIG      0.096200
     62 H37        -3.1540    2.1910    0.5660 hc        1 LIG      0.058700
     63 H38        -3.2810   -2.0520    0.4930 hc        1 LIG      0.058700
     64 H39        -2.6640    0.0350    1.6400 hx        1 LIG      0.101700
@<TRIPOS>BOND
     1    1   18 1   
     2    3   19 1   
     3    4    6 1   
     4    4   18 2   
     5    5    7 1   
     6    5   19 2   
     7    7   16 1   
     8    8   16 1   
     9    8    9 1   
    10   10    6 1   
    11   12   20 1   
    12   13   21 1   
    13   17    9 1   
    14   17   24 1   
    15   18    2 1   
    16   19   10 1   
    17   20   11 1   
    18   20   14 1   
    19   21   11 1   
    20   21   15 1   
    21   22   12 1   
    22   22   13 1   
    23   22   24 1   
    24   23   14 1   
    25   23   15 1   
    26   24   23 1   
    27    1   25 1   
    28    1   26 1   
    29    1   27 1   
    30    2   28 1   
    31    2   29 1   
    32    2   30 1   
    33    3   31 1   
    34    3   32 1   
    35    3   33 1   
    36    4   34 1   
    37    5   35 1   
    38    6   36 1   
    39    6   37 1   
    40    7   38 1   
    41    7   39 1   
    42    8   40 1   
    43    8   41 1   
    44    9   42 1   
    45    9   43 1   
    46   10   44 1   
    47   10   45 1   
    48   11   46 1   
    49   11   47 1   
    50   12   48 1   
    51   12   49 1   
    52   13   50 1   
    53   13   51 1   
    54   14   52 1   
    55   14   53 1   
    56   15   54 1   
    57   15   55 1   
    58   16   56 1   
    59   16   57 1   
    60   17   58 1   
    61   17   59 1   
    62   20   60 1   
    63   21   61 1   
    64   22   62 1   
    65   23   63 1   
    66   24   64 1   
@<TRIPOS>SUBSTRUCTURE
     1 LIG         1 TEMP              0 ****  ****    0 ROOT
