@<TRIPOS>MOLECULE
CEL
   40    42     1     0     0
SMALL
bcc


@<TRIPOS>ATOM
      1 S          -1.1540    0.0010   -4.7790 S.y       1 LIG      1.527200
      2 C          -0.9770    0.0000   -3.0260 C.a       1 LIG     -0.379500
      3 C1         -1.7720   -0.8240   -2.2520 C.a       1 LIG     -0.011000
      4 C2         -1.6350   -0.8270   -0.8780 C.a       1 LIG     -0.149500
      5 C3         -0.6980    0.0000   -0.2730 C.a       1 LIG      0.073800
      6 C4          0.0930    0.8320   -1.0520 C.a       1 LIG     -0.149500
      7 C5         -0.0430    0.8250   -2.4270 C.a       1 LIG     -0.011000
      8 N          -0.5570    0.0000    1.1200 N.a       1 LIG      0.162300
      9 C6          0.6190   -0.0310    1.8110 C.c       1 LIG     -0.028300
     10 C7          1.9780   -0.0650    1.2270 C.a       1 LIG     -0.058000
     11 C8          2.1810   -0.6070   -0.0420 C.a       1 LIG     -0.098500
     12 C9          3.4500   -0.6360   -0.5820 C.a       1 LIG     -0.134500
     13 C10         4.5210   -0.1300    0.1330 C.a       1 LIG     -0.054300
     14 C11         5.9050   -0.1650   -0.4620 C.3       1 LIG     -0.060800
     15 C12         4.3270    0.4030    1.3940 C.a       1 LIG     -0.134500
     16 C13         3.0620    0.4420    1.9430 C.a       1 LIG     -0.098500
     17 C14         0.3100   -0.0180    3.1420 C.d       1 LIG     -0.231300
     18 C15        -1.0790    0.0150    3.2580 C.d       1 LIG      0.215600
     19 C16        -1.8530    0.0390    4.5510 C.3       1 LIG      0.632600
     20 F          -3.2240    0.0710    4.2730 F.        1 LIG     -0.229300
     21 F1         -1.5550   -1.1080    5.2930 F.        1 LIG     -0.229300
     22 F2         -1.4990    1.1750    5.2860 F.        1 LIG     -0.229300
     23 N1         -1.5990    0.0240    2.0560 N.c       1 LIG     -0.440800
     24 N2         -2.2870    1.1460   -5.1620 N.3       1 LIG     -1.026700
     25 O           0.0770    0.4890   -5.2910 O.3       1 LIG     -0.655800
     26 O1         -1.7430   -1.2490   -5.1070 O.3       1 LIG     -0.655800
     27 H          -2.4690   -1.4380   -2.7020 H         1 LIG      0.160500
     28 H1         -2.2290   -1.4430   -0.3010 H         1 LIG      0.164000
     29 H2          0.7830    1.4560   -0.6050 H         1 LIG      0.164000
     30 H3          0.5530    1.4360   -3.0070 H         1 LIG      0.160500
     31 H4          1.3830   -0.9860   -0.5760 H         1 LIG      0.142500
     32 H5          3.6010   -1.0360   -1.5210 H         1 LIG      0.140500
     33 H6          5.8640   -0.6080   -1.4350 H         1 LIG      0.050700
     34 H7          6.5490   -0.7440    0.1670 H         1 LIG      0.050700
     35 H8          6.2850    0.8320   -0.5400 H         1 LIG      0.050700
     36 H9          5.1300    0.7730    1.9260 H         1 LIG      0.140500
     37 H10         2.9180    0.8460    2.8820 H         1 LIG      0.142500
     38 H11         0.9850   -0.0300    3.9230 H         1 LIG      0.188000
     39 H12        -1.9200    2.0730   -4.9470 H         1 LIG      0.449800
     40 H13        -3.1340    0.9820   -4.6180 H         1 LIG      0.449800
@<TRIPOS>BOND
     1    1    2 1   
     2    1   24 1   
     3    1   25 2   
     4    1   26 2   
     5    2    3 ar  
     6    2    7 ar  
     7    3    4 ar  
     8    4    5 ar  
     9    5    6 ar  
    10    5    8 1   
    11    6    7 ar  
    12    8    9 ar  
    13    8   23 ar  
    14    9   10 1   
    15    9   17 ar  
    16   10   11 ar  
    17   10   16 ar  
    18   11   12 ar  
    19   12   13 ar  
    20   13   14 1   
    21   13   15 ar  
    22   15   16 ar  
    23   17   18 ar  
    24   18   19 1   
    25   18   23 ar  
    26   19   20 1   
    27   19   21 1   
    28   19   22 1   
    29    3   27 1   
    30    4   28 1   
    31    6   29 1   
    32    7   30 1   
    33   11   31 1   
    34   12   32 1   
    35   14   33 1   
    36   14   34 1   
    37   14   35 1   
    38   15   36 1   
    39   16   37 1   
    40   17   38 1   
    41   24   39 1   
    42   24   40 1   
@<TRIPOS>SUBSTRUCTURE
     1 LIG         1 TEMP              0 ****  ****    0 ROOT
