@<TRIPOS>MOLECULE
C7B
   54    56     1     0     0
SMALL
bcc


@<TRIPOS>ATOM
      1 C          -0.7200   -2.3670   -0.2520 C.3       1 LIG     -0.090900
      2 C1         -1.4440   -1.1160    0.2500 C.3       1 LIG      0.093700
      3 C2          7.8260   -0.1940    0.6670 C.a       1 LIG     -0.169000
      4 C3          9.1660   -0.0890    0.9890 C.a       1 LIG     -0.090000
      5 C4         10.0180    0.6380    0.1760 C.a       1 LIG     -0.014600
      6 Cl         11.7010    0.7690    0.5820 C.l       1 LIG     -0.090400
      7 C5          9.5310    1.2600   -0.9600 C.a       1 LIG     -0.090000
      8 C6          8.1930    1.1570   -1.2850 C.a       1 LIG     -0.169000
      9 C7          7.3380    0.4240   -0.4750 C.a       1 LIG      0.125100
     10 O           6.0200    0.3210   -0.7930 O.2       1 LIG     -0.338900
     11 C8          5.1980   -0.4490    0.0870 C.3       1 LIG      0.051400
     12 C9          3.7800   -0.4500   -0.4230 C.        1 LIG      0.660100
     13 O1          3.5010    0.1500   -1.4390 O.3       1 LIG     -0.607100
     14 N           2.8220   -1.1170    0.2510 N.        1 LIG     -0.546900
     15 C10         1.4440   -1.1180   -0.2450 C.3       1 LIG      0.093700
     16 C11         0.7200   -2.3660    0.2650 C.3       1 LIG     -0.090900
     17 C12         0.7200    0.1320    0.2580 C.3       1 LIG     -0.090900
     18 C13        -0.7200    0.1310   -0.2600 C.3       1 LIG     -0.090900
     19 N1         -2.8220   -1.1180   -0.2450 N.        1 LIG     -0.546900
     20 C14        -3.7800   -0.4460    0.4240 C.        1 LIG      0.660100
     21 O2         -3.5000    0.1600    1.4370 O.3       1 LIG     -0.607100
     22 C15        -5.1980   -0.4470   -0.0860 C.3       1 LIG      0.051400
     23 O3         -6.0190    0.3280    0.7890 O.2       1 LIG     -0.338900
     24 C16        -7.3370    0.4300    0.4710 C.a       1 LIG      0.125100
     25 C17        -7.8290   -0.2090   -0.6580 C.a       1 LIG     -0.169000
     26 C18        -9.1690   -0.1050   -0.9800 C.a       1 LIG     -0.090000
     27 C19       -10.0190    0.6370   -0.1790 C.a       1 LIG     -0.014600
     28 Cl1       -11.7010    0.7670   -0.5860 C.l       1 LIG     -0.090400
     29 C20        -9.5290    1.2740    0.9480 C.a       1 LIG     -0.090000
     30 C21        -8.1920    1.1670    1.2770 C.a       1 LIG     -0.169000
     31 H          -0.7150   -2.3710   -1.3220 H         1 LIG      0.051200
     32 H1         -1.2260   -3.2390    0.1050 H         1 LIG      0.051200
     33 H2         -1.4500   -1.1120    1.3200 H         1 LIG      0.089700
     34 H3          7.1890   -0.7320    1.2760 H         1 LIG      0.149500
     35 H4          9.5310   -0.5530    1.8360 H         1 LIG      0.151500
     36 H5         10.1680    1.8010   -1.5650 H         1 LIG      0.151500
     37 H6          7.8290    1.6250   -2.1300 H         1 LIG      0.149500
     38 H7          5.2240   -0.0200    1.0670 H         1 LIG      0.074700
     39 H8          5.5630   -1.4540    0.1280 H         1 LIG      0.074700
     40 H9          3.0490   -1.6030    1.0770 H         1 LIG      0.320500
     41 H10         1.4500   -1.1210   -1.3150 H         1 LIG      0.089700
     42 H11         1.2260   -3.2410   -0.0870 H         1 LIG      0.051200
     43 H12         0.7150   -2.3630    1.3350 H         1 LIG      0.051200
     44 H13         0.7140    0.1340    1.3280 H         1 LIG      0.051200
     45 H14         1.2260    1.0050   -0.0980 H         1 LIG      0.051200
     46 H15        -1.2260    1.0060    0.0910 H         1 LIG      0.051200
     47 H16        -0.7140    0.1280   -1.3300 H         1 LIG      0.051200
     48 H17        -3.0490   -1.6100   -1.0670 H         1 LIG      0.320500
     49 H18        -5.5640   -1.4520   -0.1210 H         1 LIG      0.074700
     50 H19        -5.2240   -0.0230   -1.0680 H         1 LIG      0.074700
     51 H20        -7.1950   -0.7610   -1.2570 H         1 LIG      0.149500
     52 H21        -9.5360   -0.5810   -1.8190 H         1 LIG      0.151500
     53 H22       -10.1630    1.8290    1.5430 H         1 LIG      0.151500
     54 H23        -7.8290    1.6350    2.1220 H         1 LIG      0.149500
@<TRIPOS>BOND
     1    2   19 1   
     2    2    1 1   
     3    2   18 1   
     4    3    4 ar  
     5    5    4 ar  
     6    5    6 1   
     7    7    5 ar  
     8    8    9 ar  
     9    8    7 ar  
    10    9    3 ar  
    11   10    9 1   
    12   11   10 1   
    13   12   11 1   
    14   12   14 1   
    15   13   12 2   
    16   14   15 1   
    17   16    1 1   
    18   16   15 1   
    19   17   18 1   
    20   17   15 1   
    21   20   22 1   
    22   20   19 1   
    23   21   20 2   
    24   22   23 1   
    25   23   24 1   
    26   24   30 ar  
    27   24   25 ar  
    28   25   26 ar  
    29   26   27 ar  
    30   27   28 1   
    31   29   27 ar  
    32   30   29 ar  
    33    1   31 1   
    34    1   32 1   
    35    2   33 1   
    36    3   34 1   
    37    4   35 1   
    38    7   36 1   
    39    8   37 1   
    40   11   38 1   
    41   11   39 1   
    42   14   40 1   
    43   15   41 1   
    44   16   42 1   
    45   16   43 1   
    46   17   44 1   
    47   17   45 1   
    48   18   46 1   
    49   18   47 1   
    50   19   48 1   
    51   22   49 1   
    52   22   50 1   
    53   25   51 1   
    54   26   52 1   
    55   29   53 1   
    56   30   54 1   
@<TRIPOS>SUBSTRUCTURE
     1 LIG         1 TEMP              0 ****  ****    0 ROOT
