@<TRIPOS>MOLECULE
07V
   25    25     1     0     0
SMALL
bcc


@<TRIPOS>ATOM
      1 C           0.1380   -1.0030    0.4260 c3        1 LIG     -0.175400
      2 C1         -1.3360   -0.8720    0.1030 c         1 LIG      0.569300
      3 O          -2.0330   -1.8530   -0.0570 o         1 LIG     -0.532100
      4 C2         -1.8930    0.4800   -0.0090 ce        1 LIG     -0.196400
      5 C3         -3.3860    0.6690   -0.0700 c3        1 LIG     -0.051900
      6 C4         -1.0930    1.5380   -0.0570 c2        1 LIG     -0.110200
      7 C5          0.4020    1.4410    0.0070 c3        1 LIG     -0.057200
      8 C6          0.8830    0.0510   -0.4050 c3        1 LIG     -0.021500
      9 C7          2.3650   -0.0640   -0.1550 c2        1 LIG     -0.117400
     10 C8          2.9100    0.1100    1.2390 c3        1 LIG     -0.060900
     11 C9          3.1790   -0.3160   -1.1510 c2        1 LIG     -0.215000
     12 H           0.4830   -1.9830    0.1690 hc        1 LIG      0.074700
     13 H1          0.3110   -0.8530    1.4710 hc        1 LIG      0.074700
     14 H2         -3.8690   -0.2850   -0.0190 hc        1 LIG      0.049367
     15 H3         -3.6470    1.1520   -0.9880 hc        1 LIG      0.049367
     16 H4         -3.7030    1.2740    0.7540 hc        1 LIG      0.049367
     17 H5         -1.5210    2.4730   -0.1430 ha        1 LIG      0.130000
     18 H6          0.7220    1.6390    1.0090 hc        1 LIG      0.060700
     19 H7          0.8180    2.1580   -0.6700 hc        1 LIG      0.060700
     20 H8          0.6880   -0.1060   -1.4450 hc        1 LIG      0.059700
     21 H9          2.1040    0.3080    1.9150 hc        1 LIG      0.043367
     22 H10         3.5970    0.9300    1.2540 hc        1 LIG      0.043367
     23 H11         3.4150   -0.7840    1.5390 hc        1 LIG      0.043367
     24 H12         2.8050   -0.4350   -2.1060 ha        1 LIG      0.115000
     25 H13         4.1940   -0.3950   -0.9810 ha        1 LIG      0.115000
@<TRIPOS>BOND
     1    1    2 1   
     2    2    3 2   
     3    4    5 1   
     4    4    2 1   
     5    6    4 2   
     6    7    6 1   
     7    7    8 1   
     8    8    1 1   
     9    9    8 1   
    10    9   10 1   
    11   11    9 2   
    12    1   12 1   
    13    1   13 1   
    14    5   14 1   
    15    5   15 1   
    16    5   16 1   
    17    6   17 1   
    18    7   18 1   
    19    7   19 1   
    20    8   20 1   
    21   10   21 1   
    22   10   22 1   
    23   10   23 1   
    24   11   24 1   
    25   11   25 1   
@<TRIPOS>SUBSTRUCTURE
     1 LIG         1 TEMP              0 ****  ****    0 ROOT
