@<TRIPOS>MOLECULE
660
   61    63     1     0     0
SMALL
bcc


@<TRIPOS>ATOM
      1 C          -5.0320    0.1240   -0.8000 C.3       1 LIG      0.261500
      2 C1         -5.7620    1.3130   -0.1240 C.3       1 LIG      0.080100
      3 C2         -4.7840    2.4840   -0.3860 C.3       1 LIG      0.096100
      4 C3         -3.4350    1.7950   -0.6650 C.3       1 LIG      0.082100
      5 C4         -2.3870    2.2760    0.3410 C.3       1 LIG      0.183400
      6 O          -3.6380    0.3780   -0.5220 O.2       1 LIG     -0.431600
      7 O1         -5.2040    3.2410   -1.5230 O.h       1 LIG     -0.591800
      8 O2         -1.1140    1.7230    0.0040 O.2       1 LIG     -0.587200
      9 P           0.2230    2.0180    0.8520 P.5       1 LIG      1.582800
     10 O3          0.0690    1.3990    2.3300 O.3       1 LIG     -0.838500
     11 O4          0.4330    3.4800    0.9490 O.3       1 LIG     -0.838500
     12 O5          1.4850    1.3430    0.1160 O.2       1 LIG     -0.830800
     13 N          -5.4540   -1.1460   -0.2040 N.        1 LIG     -0.367000
     14 N1         -6.4840   -3.2360   -0.4410 N.        1 LIG     -0.591500
     15 C5         -5.5950   -2.5600    1.6690 C.c       1 LIG     -0.340200
     16 C6         -5.2060   -1.3890    1.1200 C.d       1 LIG      0.051600
     17 C7         -6.0850   -2.0610   -0.9620 C.        1 LIG      0.808500
     18 O6         -6.2990   -1.8220   -2.1350 O.3       1 LIG     -0.666500
     19 C8         -6.2540   -3.5150    0.8580 C.        1 LIG      0.717700
     20 O7         -6.6110   -4.5800    1.3300 O.3       1 LIG     -0.640500
     21 O8         -7.0260    1.5540   -0.7460 O.h       1 LIG     -0.579800
     22 P1          3.0810    1.5090    0.2540 P.5       1 LIG      1.718300
     23 O9          3.4910    3.0330   -0.0630 O.h       1 LIG     -0.820400
     24 O10         3.4960    1.1630    1.6320 O.3       1 LIG     -0.867300
     25 O11         5.7450   -0.0540    0.5810 O.2       1 LIG     -0.411600
     26 C9          5.3270   -1.4040    0.7900 C.3       1 LIG      0.062100
     27 C10         6.0280   -2.3160   -0.2210 C.3       1 LIG      0.090100
     28 C11         5.7030   -1.8370   -1.6390 C.3       1 LIG      0.071100
     29 C12         6.1310   -0.3730   -1.7830 C.3       1 LIG      0.090100
     30 C13         5.4250    0.4630   -0.7120 C.3       1 LIG      0.129100
     31 O12         5.5680   -3.6580   -0.0520 O.h       1 LIG     -0.583800
     32 O13         6.4130   -2.6380   -2.5880 O.h       1 LIG     -0.578800
     33 O14         5.7670    0.1050   -3.0790 O.h       1 LIG     -0.576800
     34 C14         3.9120    0.3980   -0.9280 C.3       1 LIG     -0.438600
     35 C15         5.6940   -1.8390    2.2100 C.3       1 LIG      0.141400
     36 O15         4.9510   -1.0630    3.1520 O.h       1 LIG     -0.598800
     37 H          -5.2410    0.0470   -1.8470 H         1 LIG      0.109700
     38 H1         -5.9790    1.1560    0.9120 H         1 LIG      0.148700
     39 H2         -4.7330    3.1690    0.4340 H         1 LIG      0.125700
     40 H3         -3.0870    2.0290   -1.6490 H         1 LIG      0.074700
     41 H4         -2.6650    1.9590    1.3240 H         1 LIG      0.039700
     42 H5         -2.3300    3.3440    0.3140 H         1 LIG      0.039700
     43 H6         -5.2640    2.6580   -2.2960 H         1 LIG      0.396000
     44 H7         -6.9450   -3.8940   -1.0100 H         1 LIG      0.339500
     45 H8         -5.4140   -2.7560    2.6660 H         1 LIG      0.185000
     46 H9         -4.7240   -0.6810    1.6960 H         1 LIG      0.247000
     47 H10        -6.8960    1.7060   -1.6950 H         1 LIG      0.405000
     48 H11         3.2190    3.2600   -0.9660 H         1 LIG      0.486000
     49 H12         4.2670   -1.4740    0.6600 H         1 LIG      0.057700
     50 H13         7.0860   -2.2830   -0.0640 H         1 LIG      0.082700
     51 H14         4.6520   -1.9250   -1.8180 H         1 LIG      0.080700
     52 H15         7.1910   -0.2930   -1.6620 H         1 LIG      0.082700
     53 H16         5.7500    1.4800   -0.7810 H         1 LIG      0.136700
     54 H17         4.6090   -3.6910   -0.1940 H         1 LIG      0.405000
     55 H18         7.3670   -2.5600   -2.4280 H         1 LIG      0.405000
     56 H19         4.8060    0.0340   -3.1920 H         1 LIG      0.417000
     57 H20         3.6810    0.7030   -1.9270 H         1 LIG      0.109700
     58 H21         3.5730   -0.6050   -0.7740 H         1 LIG      0.109700
     59 H22         6.7410   -1.6880    2.3700 H         1 LIG      0.057700
     60 H23         5.4600   -2.8750    2.3380 H         1 LIG      0.057700
     61 H24         5.1630   -0.1240    3.0360 H         1 LIG      0.417000
@<TRIPOS>BOND
     1    1   13 1   
     2    2    1 1   
     3    2   21 1   
     4    3    7 1   
     5    3    2 1   
     6    4    3 1   
     7    4    6 1   
     8    5    4 1   
     9    6    1 1   
    10    8    5 1   
    11    9   11 1   
    12    9   10 1   
    13    9    8 1   
    14   12    9 1   
    15   13   17 1   
    16   15   19 1   
    17   16   15 2   
    18   16   13 1   
    19   17   14 1   
    20   17   18 2   
    21   19   20 2   
    22   19   14 1   
    23   22   23 1   
    24   22   34 1   
    25   22   12 1   
    26   24   22 2   
    27   25   30 1   
    28   25   26 1   
    29   26   27 1   
    30   27   28 1   
    31   27   31 1   
    32   28   32 1   
    33   29   33 1   
    34   29   28 1   
    35   30   29 1   
    36   30   34 1   
    37   35   26 1   
    38   36   35 1   
    39    1   37 1   
    40    2   38 1   
    41    3   39 1   
    42    4   40 1   
    43    5   41 1   
    44    5   42 1   
    45    7   43 1   
    46   14   44 1   
    47   15   45 1   
    48   16   46 1   
    49   21   47 1   
    50   23   48 1   
    51   26   49 1   
    52   27   50 1   
    53   28   51 1   
    54   29   52 1   
    55   30   53 1   
    56   31   54 1   
    57   32   55 1   
    58   33   56 1   
    59   34   57 1   
    60   34   58 1   
    61   35   59 1   
    62   35   60 1   
    63   36   61 1   
@<TRIPOS>SUBSTRUCTURE
     1 LIG         1 TEMP              0 ****  ****    0 ROOT
