@<TRIPOS>MOLECULE
HF2
   21    21     1     0     0
SMALL
bcc


@<TRIPOS>ATOM
      1 C          -2.7370    0.1520   -0.0790 C.        1 LIG      0.893600
      2 O          -3.4960   -0.7850   -0.0100 O.3       1 LIG     -0.833300
      3 C1         -1.2860   -0.0760   -0.4140 C.3       1 LIG      0.016100
      4 O1         -1.0790   -1.4570   -0.7190 O.h       1 LIG     -0.654800
      5 C2         -0.4180    0.3180    0.7820 C.3       1 LIG     -0.057100
      6 C3          1.0370    0.2060    0.4060 C.a       1 LIG     -0.041300
      7 C4          3.7070    0.0010   -0.2840 C.a       1 LIG     -0.159000
      8 C5          1.6970    1.2930   -0.1360 C.a       1 LIG     -0.132500
      9 C6          1.7140   -0.9830    0.6080 C.a       1 LIG     -0.132500
     10 C7          3.0310    1.1910   -0.4810 C.a       1 LIG     -0.143500
     11 C8          3.0490   -1.0850    0.2630 C.a       1 LIG     -0.143500
     12 O2         -3.1880    1.3980    0.1380 O.3       1 LIG     -0.833300
     13 H          -1.0180    0.5200   -1.2610 H         1 LIG      0.043700
     14 H1         -1.3220   -1.9980    0.0490 H         1 LIG      0.427000
     15 H2         -0.6250   -0.3350    1.6040 H         1 LIG      0.061200
     16 H3         -0.6370    1.3270    1.0640 H         1 LIG      0.061200
     17 H4          4.7020   -0.0760   -0.5450 H         1 LIG      0.109000
     18 H5          1.1930    2.1810   -0.2830 H         1 LIG      0.146500
     19 H6          1.2230   -1.7940    1.0160 H         1 LIG      0.146500
     20 H7          3.5230    2.0030   -0.8860 H         1 LIG      0.112000
     21 H8          3.5540   -1.9720    0.4140 H         1 LIG      0.112000
@<TRIPOS>BOND
     1    1    2 1   
     2    1    3 1   
     3    1   12 1   
     4    3    4 1   
     5    3    5 1   
     6    5    6 1   
     7    6    8 ar  
     8    6    9 ar  
     9    7   10 ar  
    10    7   11 ar  
    11    8   10 ar  
    12    9   11 ar  
    13    3   13 1   
    14    4   14 1   
    15    5   15 1   
    16    5   16 1   
    17    7   17 1   
    18    8   18 1   
    19    9   19 1   
    20   10   20 1   
    21   11   21 1   
@<TRIPOS>SUBSTRUCTURE
     1 LIG         1 TEMP              0 ****  ****    0 ROOT
