@<TRIPOS>MOLECULE
P0G
   54    56     1     0     0
SMALL
bcc


@<TRIPOS>ATOM
      1 C          -4.3710    2.2340   -0.8400 c3        1 LIG     -0.063800
      2 C1         -2.2000    0.9620    0.2050 c3        1 LIG     -0.126600
      3 C2         -2.5130   -1.4010    0.9540 c3        1 LIG     -0.126600
      4 O           4.9390    3.5000    0.1020 o         1 LIG     -0.573500
      5 O1          5.9770   -0.9990    1.6560 oh        1 LIG     -0.486100
      6 O2          0.9240   -2.6030   -1.6800 oh        1 LIG     -0.635800
      7 C3         -6.9980    0.6400    1.3530 ca        1 LIG     -0.098000
      8 C4         -6.6850   -0.7010    1.2300 ca        1 LIG     -0.122000
      9 C5         -6.2490    1.5900    0.6840 ca        1 LIG     -0.121000
     10 C6         -5.6200   -1.0910    0.4410 ca        1 LIG     -0.124000
     11 C7          4.1150   -2.2540    0.8670 ca        1 LIG     -0.199000
     12 C8          2.9300   -2.3150    0.1570 ca        1 LIG     -0.078000
     13 C9          2.9140    2.3760   -0.3630 c3        1 LIG      0.057400
     14 C10        -0.0150   -0.8220   -0.3440 c3        1 LIG      0.102800
     15 C11        -3.7010   -0.5670   -1.0800 c3        1 LIG     -0.045100
     16 N          -1.2750   -0.8940   -1.0970 n4        1 LIG     -0.766000
     17 N1          5.0030    1.2990    0.4100 n         1 LIG     -0.454100
     18 O3          2.6540    1.1270   -1.0070 os        1 LIG     -0.341900
     19 C12         4.3570    2.4370    0.0720 c         1 LIG      0.677500
     20 C13        -5.1870    1.1980   -0.1100 ca        1 LIG     -0.060300
     21 C14         4.8120   -1.0580    0.9580 ca        1 LIG      0.145100
     22 C15        -4.8670   -0.1410   -0.2250 ca        1 LIG     -0.120300
     23 C16         2.4340   -1.1870   -0.4710 ca        1 LIG     -0.195300
     24 C17         4.3140    0.0780    0.3330 ca        1 LIG      0.003600
     25 C18         3.1260    0.0100   -0.3900 ca        1 LIG      0.116100
     26 C19         1.1420   -1.2600   -1.2430 c3        1 LIG      0.198400
     27 C20        -2.4110   -0.4790   -0.2630 c3        1 LIG      0.159200
     28 H          -4.7630    3.2080   -0.6330 hc        1 LIG      0.049033
     29 H1         -4.4170    2.0470   -1.8930 hc        1 LIG      0.049033
     30 H2         -3.3540    2.1830   -0.5120 hc        1 LIG      0.049033
     31 H3         -1.2970    1.0230    0.7760 hc        1 LIG      0.075700
     32 H4         -3.0280    1.2650    0.8120 hc        1 LIG      0.075700
     33 H5         -2.1270    1.6060   -0.6460 hc        1 LIG      0.075700
     34 H6         -1.6100   -1.3390    1.5250 hc        1 LIG      0.075700
     35 H7         -2.6590   -2.4090    0.6260 hc        1 LIG      0.075700
     36 H8         -3.3410   -1.1000    1.5610 hc        1 LIG      0.075700
     37 H9          6.3110   -1.7670    2.0770 ho        1 LIG      0.445000
     38 H10         0.0920   -2.6500   -2.1770 ho        1 LIG      0.451000
     39 H11        -7.7920    0.9320    1.9450 ha        1 LIG      0.152000
     40 H12        -7.2460   -1.4100    1.7270 ha        1 LIG      0.150000
     41 H13        -6.4820    2.5910    0.7770 ha        1 LIG      0.149000
     42 H14        -5.3860   -2.0920    0.3480 ha        1 LIG      0.129000
     43 H15         4.4820   -3.1000    1.3300 ha        1 LIG      0.158000
     44 H16         2.4130   -3.2060    0.0950 ha        1 LIG      0.151000
     45 H17         2.2800    2.4720    0.4940 h1        1 LIG      0.095200
     46 H18         2.7180    3.1740   -1.0480 h1        1 LIG      0.095200
     47 H19         0.1480    0.1840   -0.0170 hx        1 LIG      0.113700
     48 H20        -0.0700   -1.4690    0.5060 hx        1 LIG      0.113700
     49 H21        -3.6290    0.0770   -1.9310 hc        1 LIG      0.064700
     50 H22        -3.8480   -1.5750   -1.4070 hc        1 LIG      0.064700
     51 H23        -1.4230   -1.8540   -1.4090 hn        1 LIG      0.451300
     52 H24        -1.2120   -0.2640   -1.8970 hn        1 LIG      0.451300
     53 H25         5.9420    1.3260    0.7060 hn        1 LIG      0.364500
     54 H26         1.1970   -0.6130   -2.0930 h1        1 LIG      0.076700
@<TRIPOS>BOND
     1    1   20 1   
     2    2   27 1   
     3    4   19 2   
     4    5   21 1   
     5    6   26 1   
     6    7    8 ar  
     7    9    7 ar  
     8   10    8 ar  
     9   11   12 ar  
    10   12   23 ar  
    11   13   18 1   
    12   14   26 1   
    13   14   16 1   
    14   15   22 1   
    15   16   27 1   
    16   17   24 1   
    17   17   19 1   
    18   19   13 1   
    19   20    9 ar  
    20   20   22 ar  
    21   21   11 ar  
    22   21   24 ar  
    23   22   10 ar  
    24   23   26 1   
    25   24   25 ar  
    26   25   18 1   
    27   25   23 ar  
    28   27    3 1   
    29   27   15 1   
    30    1   28 1   
    31    1   29 1   
    32    1   30 1   
    33    2   31 1   
    34    2   32 1   
    35    2   33 1   
    36    3   34 1   
    37    3   35 1   
    38    3   36 1   
    39    5   37 1   
    40    6   38 1   
    41    7   39 1   
    42    8   40 1   
    43    9   41 1   
    44   10   42 1   
    45   11   43 1   
    46   12   44 1   
    47   13   45 1   
    48   13   46 1   
    49   14   47 1   
    50   14   48 1   
    51   15   49 1   
    52   15   50 1   
    53   16   51 1   
    54   16   52 1   
    55   17   53 1   
    56   26   54 1   
@<TRIPOS>SUBSTRUCTURE
     1 LIG         1 TEMP              0 ****  ****    0 ROOT
