@<TRIPOS>MOLECULE
3SY
   21    20     1     0     0
SMALL
bcc


@<TRIPOS>ATOM
      1 O          -2.4160    0.0000    0.0580 O.h       1 LIG     -0.597300
      2 C          -1.2490    0.0000    0.8830 C.3       1 LIG      0.136650
      3 C1          0.0000    0.0000   -0.0000 C.3       1 LIG     -0.170000
      4 C2          1.2490   -0.0000    0.8830 C.3       1 LIG      0.136650
      5 O1          2.4160   -0.0000    0.0580 O.h       1 LIG     -0.597300
      6 C3         -0.0000   -1.2490   -0.8830 C.3       1 LIG      0.136650
      7 O2         -0.0000   -2.4160   -0.0580 O.h       1 LIG     -0.597300
      8 C4          0.0000    1.2490   -0.8830 C.3       1 LIG      0.136650
      9 O3          0.0000    2.4160   -0.0580 O.h       1 LIG     -0.597300
     10 H          -3.2080    0.0000    0.6180 H         1 LIG      0.402500
     11 H1         -1.2490   -0.8740    1.5010 H         1 LIG      0.050450
     12 H2         -1.2490    0.8740    1.5010 H         1 LIG      0.050450
     13 H3          1.2490   -0.8740    1.5010 H         1 LIG      0.050450
     14 H4          1.2490    0.8740    1.5010 H         1 LIG      0.050450
     15 H5          2.4160   -0.7920   -0.5020 H         1 LIG      0.402500
     16 H6          0.8740   -1.2490   -1.5010 H         1 LIG      0.050450
     17 H7         -0.8740   -1.2490   -1.5010 H         1 LIG      0.050450
     18 H8          0.7920   -2.4160    0.5020 H         1 LIG      0.402500
     19 H9          0.8740    1.2490   -1.5010 H         1 LIG      0.050450
     20 H10        -0.8740    1.2490   -1.5010 H         1 LIG      0.050450
     21 H11         0.7920    2.4160    0.5020 H         1 LIG      0.402500
@<TRIPOS>BOND
     1    2    1 1   
     2    3    2 1   
     3    3    6 1   
     4    4    3 1   
     5    5    4 1   
     6    6    7 1   
     7    8    9 1   
     8    8    3 1   
     9    1   10 1   
    10    2   11 1   
    11    2   12 1   
    12    4   13 1   
    13    4   14 1   
    14    5   15 1   
    15    6   16 1   
    16    6   17 1   
    17    7   18 1   
    18    8   19 1   
    19    8   20 1   
    20    9   21 1   
@<TRIPOS>SUBSTRUCTURE
     1 LIG         1 TEMP              0 ****  ****    0 ROOT
