@<TRIPOS>MOLECULE
JMM
   34    36     1     0     0
SMALL
bcc


@<TRIPOS>ATOM
      1 C           1.2110    1.8260    0.5710 c3        1 LIG      0.065000
      2 C1         -0.2610   -0.5090   -0.4950 c3        1 LIG      0.064500
      3 C2          5.1190   -1.3260    0.0860 cx        1 LIG     -0.110400
      4 C3         -4.8200   -1.3160    0.3450 cc        1 LIG     -0.273300
      5 C4         -4.3570    0.0040    0.2290 cc        1 LIG     -0.182300
      6 C5         -3.0240   -0.0710   -0.0550 cd        1 LIG      0.183200
      7 O          -2.6820   -1.3750   -0.1120 os        1 LIG     -0.354800
      8 C6         -3.7630   -2.1290    0.1290 cd        1 LIG      0.258600
      9 C7         -2.1210    1.0660   -0.2640 c         1 LIG      0.595600
     10 O1         -2.5670    2.1980   -0.2990 o         1 LIG     -0.590100
     11 N          -0.7990    0.8570   -0.4160 n         1 LIG     -0.453800
     12 C8          0.1320    1.9910   -0.5060 c3        1 LIG      0.064500
     13 N1          1.7490    0.4600    0.4920 n         1 LIG     -0.468800
     14 C9          0.8180   -0.6740    0.5820 c3        1 LIG      0.065000
     15 C10         3.0710    0.2510    0.3400 c         1 LIG      0.688100
     16 O2          3.8300    1.1950    0.2660 o         1 LIG     -0.600100
     17 C11         3.6080   -1.1550    0.2600 cx        1 LIG     -0.215700
     18 C12         4.1770   -1.6190   -1.0830 cx        1 LIG     -0.110400
     19 H           1.9970    2.5330    0.4050 h1        1 LIG      0.066200
     20 H1          0.7890    1.9970    1.5400 h1        1 LIG      0.066200
     21 H2         -1.0470   -1.2160   -0.3290 h1        1 LIG      0.070200
     22 H3          0.1610   -0.6800   -1.4640 h1        1 LIG      0.070200
     23 H4          5.6270   -2.1290    0.5780 hc        1 LIG      0.081200
     24 H5          5.9730   -0.6980    0.2300 hc        1 LIG      0.081200
     25 H6         -5.7870   -1.6100    0.5560 ha        1 LIG      0.168000
     26 H7         -4.9160    0.8650    0.3370 ha        1 LIG      0.178000
     27 H8         -3.7850   -3.1610    0.1470 h4        1 LIG      0.057100
     28 H9         -0.3990    2.9060   -0.3470 h1        1 LIG      0.070200
     29 H10         0.5840    2.0160   -1.4750 h1        1 LIG      0.070200
     30 H11         1.3490   -1.5890    0.4230 h1        1 LIG      0.066200
     31 H12         0.3660   -0.6990    1.5510 h1        1 LIG      0.066200
     32 H13         2.8770   -1.5330    0.9440 hc        1 LIG      0.099700
     33 H14         4.1540   -0.9640   -1.9290 hc        1 LIG      0.081200
     34 H15         4.0080   -2.4570   -1.7270 hc        1 LIG      0.081200
@<TRIPOS>BOND
     1    1   13 1   
     2    2   14 1   
     3    4    5 ar  
     4    4    8 ar  
     5    5    6 ar  
     6    6    9 1   
     7    6    7 ar  
     8    8    7 ar  
     9    9   11 1   
    10   10    9 2   
    11   11   12 1   
    12   11    2 1   
    13   12    1 1   
    14   13   15 1   
    15   14   13 1   
    16   15   16 2   
    17   15   17 1   
    18   17    3 1   
    19   18   17 1   
    20   18    3 1   
    21    1   19 1   
    22    1   20 1   
    23    2   21 1   
    24    2   22 1   
    25    3   23 1   
    26    3   24 1   
    27    4   25 1   
    28    5   26 1   
    29    8   27 1   
    30   12   28 1   
    31   12   29 1   
    32   14   30 1   
    33   14   31 1   
    34   17   32 1   
    35   18   33 1   
    36   18   34 1   
@<TRIPOS>SUBSTRUCTURE
     1 LIG         1 TEMP              0 ****  ****    0 ROOT
