@<TRIPOS>MOLECULE
C1E
   25    25     1     0     0
SMALL
bcc


@<TRIPOS>ATOM
      1 O           1.2340   -2.0160    0.2630 O.3       1 LIG     -0.563100
      2 C           1.4820   -0.8320    0.1230 C.        1 LIG      0.583900
      3 C1          0.3920    0.1390    0.0480 C.e       1 LIG     -0.357200
      4 C2         -0.8960   -0.2790    0.1350 C.f       1 LIG      0.046000
      5 C3         -1.9500    0.6600    0.0620 C.f       1 LIG     -0.118600
      6 Cl         -1.5980    2.3600    0.0300 C.l       1 LIG     -0.177400
      7 C4         -3.2400    0.2330    0.0190 C.e       1 LIG      0.096900
      8 O1         -4.2550    1.1260    0.1200 O.h       1 LIG     -0.515100
      9 C5         -3.5360   -1.2020   -0.1400 C.        1 LIG      0.891800
     10 O2         -4.8080   -1.6410   -0.0580 O.3       1 LIG     -0.790300
     11 O3         -2.6330   -1.9890   -0.3430 O.3       1 LIG     -0.790300
     12 C6          2.8860   -0.3770    0.0340 C.a       1 LIG     -0.140600
     13 C7          3.9300   -1.3010    0.1110 C.a       1 LIG     -0.093000
     14 C8          5.2370   -0.8690    0.0280 C.a       1 LIG     -0.149500
     15 C9          5.5150    0.4770   -0.1310 C.a       1 LIG     -0.129000
     16 C10         4.4860    1.3990   -0.2080 C.a       1 LIG     -0.149500
     17 C11         3.1740    0.9800   -0.1320 C.a       1 LIG     -0.093000
     18 H           0.6020    1.1420   -0.0710 H         1 LIG      0.130000
     19 H1         -1.1060   -1.2820    0.2540 H         1 LIG      0.201000
     20 H2         -5.1440    0.8310    0.0900 H         1 LIG      0.459000
     21 H3          3.7240   -2.3050    0.2300 H         1 LIG      0.147000
     22 H4          6.0090   -1.5510    0.0850 H         1 LIG      0.122500
     23 H5          6.4950    0.7950   -0.1930 H         1 LIG      0.118000
     24 H6          4.7010    2.4020   -0.3230 H         1 LIG      0.122500
     25 H7          2.4070    1.6670   -0.1980 H         1 LIG      0.147000
@<TRIPOS>BOND
     1    2    1 2   
     2    2   12 1   
     3    3    2 1   
     4    4    3 2   
     5    5    4 1   
     6    6    5 1   
     7    7    9 1   
     8    7    5 2   
     9    8    7 1   
    10    9   10 1   
    11   11    9 1   
    12   12   13 ar  
    13   12   17 ar  
    14   13   14 ar  
    15   14   15 ar  
    16   16   15 ar  
    17   17   16 ar  
    18    3   18 1   
    19    4   19 1   
    20    8   20 1   
    21   13   21 1   
    22   14   22 1   
    23   15   23 1   
    24   16   24 1   
    25   17   25 1   
@<TRIPOS>SUBSTRUCTURE
     1 LIG         1 TEMP              0 ****  ****    0 ROOT
