@<TRIPOS>MOLECULE
T3E
   42    44     1     0     0
SMALL
bcc


@<TRIPOS>ATOM
      1 C           7.8470    2.3500   -0.0740 C.3       1 LIG      0.180100
      2 N           7.2500    1.0250    0.1120 N.h       1 LIG     -0.811900
      3 C1          5.8790    0.8700    0.0460 C.c       1 LIG      0.650300
      4 N1          5.0320    1.8320   -0.1770 N.d       1 LIG     -0.723000
      5 C2          3.7600    1.5130   -0.2100 C.d       1 LIG      0.481600
      6 C3          2.6700    2.5230   -0.4580 C.3       1 LIG     -0.133400
      7 C4          3.5100    0.1990   -0.0020 C.c       1 LIG     -0.349900
      8 C5          2.1850   -0.4370    0.0150 C.a       1 LIG      0.652800
      9 N2          1.0820    0.2850   -0.1840 N.b       1 LIG     -0.769000
     10 C6         -0.1110   -0.2870   -0.1690 C.a       1 LIG      0.900900
     11 N3         -1.2310    0.4960   -0.3800 N.h       1 LIG     -0.706300
     12 C7         -2.4910   -0.1000   -0.4840 C.a       1 LIG      0.103600
     13 C8         -3.6160    0.5630   -0.0090 C.a       1 LIG     -0.055000
     14 C9         -4.8590   -0.0280   -0.1140 C.a       1 LIG     -0.365500
     15 S          -6.2860    0.8120    0.4880 S.y       1 LIG      1.526200
     16 O          -5.8270    1.7330    1.4680 O.3       1 LIG     -0.656300
     17 N4         -6.8840    1.7190   -0.7620 N.3       1 LIG     -1.027700
     18 O1         -7.2580   -0.1890    0.7570 O.3       1 LIG     -0.656300
     19 C10        -4.9860   -1.2780   -0.6900 C.a       1 LIG     -0.027000
     20 C11        -3.8680   -1.9410   -1.1630 C.a       1 LIG     -0.146000
     21 C12        -2.6220   -1.3530   -1.0670 C.a       1 LIG     -0.044000
     22 N5         -0.2680   -1.5880    0.0420 N.b       1 LIG     -0.748000
     23 C13         0.7690   -2.3790    0.2490 C.a       1 LIG      0.512200
     24 C14         2.0560   -1.8300    0.2390 C.a       1 LIG     -0.337600
     25 C15         3.2090   -2.6520    0.4530 C.g       1 LIG      0.250800
     26 N6          4.1230   -3.3040    0.6230 N.1       1 LIG     -0.361800
     27 S1          5.0540   -0.6150    0.2360 S.3       1 LIG     -0.097300
     28 H           8.9110    2.2770    0.0100 H         1 LIG      0.050367
     29 H1          7.4750    3.0170    0.6750 H         1 LIG      0.050367
     30 H2          7.5910    2.7240   -1.0430 H         1 LIG      0.050367
     31 H3          7.8260    0.2450    0.2840 H         1 LIG      0.418800
     32 H4          3.1050    3.4910   -0.5940 H         1 LIG      0.063367
     33 H5          2.0060    2.5450    0.3810 H         1 LIG      0.063367
     34 H6          2.1240    2.2500   -1.3370 H         1 LIG      0.063367
     35 H7         -1.1410    1.4730   -0.4570 H         1 LIG      0.445800
     36 H8         -3.5220    1.4960    0.4220 H         1 LIG      0.157000
     37 H9         -6.2190    2.4570   -0.9950 H         1 LIG      0.448300
     38 H10        -7.7720    2.1370   -0.4840 H         1 LIG      0.448300
     39 H11        -5.9170   -1.7170   -0.7670 H         1 LIG      0.153000
     40 H12        -3.9650   -2.8760   -1.5880 H         1 LIG      0.145000
     41 H13        -1.7900   -1.8450   -1.4280 H         1 LIG      0.160000
     42 H14         0.6320   -3.3880    0.4160 H         1 LIG      0.039100
@<TRIPOS>BOND
     1    1    2 1   
     2    2    3 1   
     3    3    4 ar  
     4    3   27 ar  
     5    4    5 ar  
     6    5    6 1   
     7    5    7 ar  
     8    7    8 1   
     9    7   27 ar  
    10    8    9 ar  
    11    8   24 ar  
    12    9   10 ar  
    13   10   11 1   
    14   10   22 ar  
    15   11   12 1   
    16   12   13 ar  
    17   12   21 ar  
    18   13   14 ar  
    19   14   15 1   
    20   14   19 ar  
    21   15   16 2   
    22   15   17 1   
    23   15   18 2   
    24   19   20 ar  
    25   20   21 ar  
    26   22   23 ar  
    27   23   24 ar  
    28   24   25 1   
    29   25   26 3   
    30    1   28 1   
    31    1   29 1   
    32    1   30 1   
    33    2   31 1   
    34    6   32 1   
    35    6   33 1   
    36    6   34 1   
    37   11   35 1   
    38   13   36 1   
    39   17   37 1   
    40   17   38 1   
    41   19   39 1   
    42   20   40 1   
    43   21   41 1   
    44   23   42 1   
@<TRIPOS>SUBSTRUCTURE
     1 LIG         1 TEMP              0 ****  ****    0 ROOT
