@<TRIPOS>MOLECULE
S3C
   19    19     1     0     0
SMALL
bcc


@<TRIPOS>ATOM
      1 C           1.1110    0.4020    0.3310 C.a       1 LIG      0.021400
      2 C1          2.1120   -2.1110   -0.3050 C.a       1 LIG     -0.131000
      3 Cl         -0.2700   -3.3600   -0.0100 C.l       1 LIG     -0.067400
      4 C2          0.7740   -1.9730    0.0020 C.a       1 LIG      0.010400
      5 C3          0.2610   -0.7100    0.3240 C.a       1 LIG      0.021200
      6 C4         -1.1640   -0.5540    0.6520 C.e       1 LIG     -0.241200
      7 C5         -1.9480    0.2550   -0.1010 C.f       1 LIG      0.010400
      8 C6         -3.3340    0.5200    0.3060 C.        1 LIG      0.924800
      9 O          -4.1140    1.3250   -0.4430 O.3       1 LIG     -0.799300
     10 O1         -3.7770    0.0140    1.3190 O.3       1 LIG     -0.799300
     11 S          -1.3050    0.9880   -1.5680 S.h       1 LIG     -0.243400
     12 Cl1         0.4880    1.9710    0.7350 C.l       1 LIG     -0.050400
     13 C7          2.4480    0.2450    0.0220 C.a       1 LIG      0.010400
     14 Cl2         3.5060    1.6220    0.0300 C.l       1 LIG     -0.102400
     15 C8          2.9470   -1.0070   -0.2950 C.a       1 LIG     -0.138000
     16 H           2.4920   -3.0410   -0.5430 H         1 LIG      0.139000
     17 H1         -1.5670   -1.0610    1.4560 H         1 LIG      0.158000
     18 H2         -0.0120    0.6010   -1.7390 H         1 LIG      0.137800
     19 H3          3.9470   -1.1180   -0.5250 H         1 LIG      0.139000
@<TRIPOS>BOND
     1    1    5 ar  
     2    1   13 ar  
     3    4    3 1   
     4    4    2 ar  
     5    5    4 ar  
     6    6    5 1   
     7    7    6 2   
     8    8    7 1   
     9    8    9 1   
    10   10    8 1   
    11   11    7 1   
    12   12    1 1   
    13   13   15 ar  
    14   14   13 1   
    15   15    2 ar  
    16    2   16 1   
    17    6   17 1   
    18   11   18 1   
    19   15   19 1   
@<TRIPOS>SUBSTRUCTURE
     1 LIG         1 TEMP              0 ****  ****    0 ROOT
