@<TRIPOS>MOLECULE
6V9
   13    13     1     0     0
SMALL
bcc


@<TRIPOS>ATOM
      1 C          -1.9220   -0.0970   -0.0020 cc        1 LIG      0.312700
      2 C1         -3.3930    0.2310   -0.0020 c3        1 LIG     -0.106400
      3 C2          1.9920   -0.0460   -0.0010 c         1 LIG      0.937200
      4 O           2.7230   -1.0180   -0.0020 o         1 LIG     -0.818800
      5 C3          0.5380   -0.2230   -0.0010 cd        1 LIG     -0.183000
      6 S          -0.6660    1.0640    0.0010 ss        1 LIG     -0.113300
      7 N          -1.4340   -1.2950    0.0020 nc        1 LIG     -0.660000
      8 C4         -0.1300   -1.4160    0.0020 cc        1 LIG      0.300200
      9 O1          2.5210    1.1950    0.0010 o         1 LIG     -0.818800
     10 H          -3.5220    1.2930   -0.0060 hc        1 LIG      0.034033
     11 H1         -3.8500   -0.1800    0.8740 hc        1 LIG      0.034033
     12 H2         -3.8520   -0.1870   -0.8740 hc        1 LIG      0.034033
     13 H3          0.3500   -2.3290    0.0040 h4        1 LIG      0.048100
@<TRIPOS>BOND
     1    1    2 1   
     2    1    6 ar  
     3    3    4 1   
     4    3    9 1   
     5    5    3 1   
     6    5    6 ar  
     7    7    8 ar  
     8    7    1 ar  
     9    8    5 ar  
    10    2   10 1   
    11    2   11 1   
    12    2   12 1   
    13    8   13 1   
@<TRIPOS>SUBSTRUCTURE
     1 LIG         1 TEMP              0 ****  ****    0 ROOT
