@<TRIPOS>MOLECULE
MBF
   23    23     1     0     0
SMALL
bcc


@<TRIPOS>ATOM
      1 O          -2.7880   -0.3220   -0.8790 oh        1 LIG     -0.572800
      2 C          -1.4410   -0.5890   -0.4820 c3        1 LIG      0.319900
      3 C1         -0.4920   -0.2120   -1.6220 c3        1 LIG      0.077600
      4 F          -0.6090    1.1540   -1.8960 f         1 LIG     -0.233300
      5 C2          0.9460   -0.5310   -1.2010 c3        1 LIG      0.084100
      6 O1          1.8540   -0.0500   -2.1940 oh        1 LIG     -0.572800
      7 C3          1.2280    0.1580    0.1370 c3        1 LIG      0.080100
      8 O2          2.5110   -0.2430    0.6210 oh        1 LIG     -0.571800
      9 C4          0.1500   -0.2470    1.1440 c3        1 LIG      0.076100
     10 O3         -1.1280    0.1770    0.6790 os        1 LIG     -0.449600
     11 C5          0.4430    0.4080    2.4950 c3        1 LIG      0.140400
     12 O4         -0.5600    0.0280    3.4380 oh        1 LIG     -0.594800
     13 H          -3.0020   -0.8430   -1.6690 ho        1 LIG      0.430000
     14 H1         -1.3310   -1.6300   -0.2590 h2        1 LIG      0.088700
     15 H2         -0.7430   -0.7690   -2.5000 h1        1 LIG      0.086700
     16 H3          1.0730   -1.5890   -1.0990 h1        1 LIG      0.086700
     17 H4          1.7460    0.9090   -2.2930 ho        1 LIG      0.417000
     18 H5          1.2180    1.2200    0.0060 h1        1 LIG      0.099700
     19 H6          2.5250   -1.2050    0.7420 ho        1 LIG      0.407000
     20 H7          0.1510   -1.3110    1.2530 h1        1 LIG      0.055700
     21 H8          0.4420    1.4720    2.3830 h1        1 LIG      0.066200
     22 H9          1.4010    0.0860    2.8460 h1        1 LIG      0.066200
     23 H10        -1.4290    0.3190    3.1210 ho        1 LIG      0.413000
@<TRIPOS>BOND
     1    1    2 1   
     2    2    3 1   
     3    2   10 1   
     4    3    4 1   
     5    3    5 1   
     6    5    6 1   
     7    5    7 1   
     8    7    8 1   
     9    7    9 1   
    10    9   10 1   
    11    9   11 1   
    12   11   12 1   
    13    1   13 1   
    14    2   14 1   
    15    3   15 1   
    16    5   16 1   
    17    6   17 1   
    18    7   18 1   
    19    8   19 1   
    20    9   20 1   
    21   11   21 1   
    22   11   22 1   
    23   12   23 1   
@<TRIPOS>SUBSTRUCTURE
     1 LIG         1 TEMP              0 ****  ****    0 ROOT
