@<TRIPOS>MOLECULE
5OC
   33    34     1     0     0
SMALL
bcc


@<TRIPOS>ATOM
      1 P           4.2740   -1.0500   -0.0660 p5        1 LIG      1.355900
      2 N          -2.2840    0.3070   -0.4150 n         1 LIG     -0.362000
      3 C          -2.2860   -0.1480    0.8520 c         1 LIG      0.817900
      4 O          -1.3280    0.0820    1.5720 o         1 LIG     -0.707500
      5 N1         -3.3150   -0.8430    1.3330 nc        1 LIG     -0.757100
      6 C1         -4.3700   -1.1070    0.5740 cd        1 LIG      0.704500
      7 N2         -5.4270   -1.8270    1.0840 nh        1 LIG     -0.895800
      8 C2         -4.4030   -0.6450   -0.7610 cd        1 LIG     -0.155500
      9 O1         -5.4770   -0.9050   -1.5570 oh        1 LIG     -0.567100
     10 C3         -3.3470    0.0620   -1.2370 cc        1 LIG     -0.020400
     11 C4         -1.1400    1.0740   -0.9120 c3        1 LIG      0.295500
     12 C5         -1.0250    2.4040   -0.1410 c3        1 LIG     -0.118400
     13 C6          0.3880    2.3560    0.4890 c3        1 LIG      0.103100
     14 O2          1.0290    3.6310    0.4000 oh        1 LIG     -0.645800
     15 C7          1.1070    1.3130   -0.4040 c3        1 LIG      0.064100
     16 O3          0.0760    0.3420   -0.6840 os        1 LIG     -0.441600
     17 C8          2.2700    0.6670    0.3520 c3        1 LIG      0.217400
     18 O4          2.9850   -0.2030   -0.5280 os        1 LIG     -0.572200
     19 O5          5.4710   -0.0430    0.3120 o         1 LIG     -0.927833
     20 O6          3.9270   -1.8700    1.1160 o         1 LIG     -0.927833
     21 O7          4.7410   -2.0130   -1.2690 o         1 LIG     -0.927833
     22 H          -5.4010   -2.1470    2.0140 hn        1 LIG      0.402300
     23 H1         -6.2090   -2.0210    0.5180 hn        1 LIG      0.402300
     24 H2         -6.2020   -1.3940   -1.2200 ho        1 LIG      0.523000
     25 H3         -3.3470    0.4100   -2.2080 h4        1 LIG      0.289000
     26 H4         -1.2860    1.2520   -1.9570 h2        1 LIG      0.092700
     27 H5         -1.7770    2.4690    0.6180 hc        1 LIG      0.050200
     28 H6         -1.1640    3.2570   -0.7720 hc        1 LIG      0.050200
     29 H7          0.3890    2.1070    1.5300 h1        1 LIG      0.146700
     30 H8          1.0600    3.9130   -0.5270 ho        1 LIG      0.466000
     31 H9          1.5300    1.7390   -1.2900 h1        1 LIG      0.044700
     32 H10         1.8890    0.1040    1.1790 h1        1 LIG      0.001700
     33 H11         2.9280    1.4290    0.7130 h1        1 LIG      0.001700
@<TRIPOS>BOND
     1    1   18 1   
     2    1   20 1   
     3    1   21 1   
     4    2   10 1   
     5    2    3 1   
     6    3    5 1   
     7    4    3 2   
     8    5    6 2   
     9    6    7 1   
    10    8    6 1   
    11    8    9 1   
    12   10    8 2   
    13   11    2 1   
    14   11   12 1   
    15   13   12 1   
    16   13   14 1   
    17   15   13 1   
    18   16   11 1   
    19   16   15 1   
    20   17   15 1   
    21   17   18 1   
    22   19    1 1   
    23    7   22 1   
    24    7   23 1   
    25    9   24 1   
    26   10   25 1   
    27   11   26 1   
    28   12   27 1   
    29   12   28 1   
    30   13   29 1   
    31   14   30 1   
    32   15   31 1   
    33   17   32 1   
    34   17   33 1   
@<TRIPOS>SUBSTRUCTURE
     1 LIG         1 TEMP              0 ****  ****    0 ROOT
