@<TRIPOS>MOLECULE
GSH
   36    35     1     0     0
SMALL
bcc


@<TRIPOS>ATOM
      1 N           4.7600    2.2440    0.1850 n4        1 UNK     -0.836600
      2 C           4.7940    0.7910    0.4040 c3        1 UNK     -0.056500
      3 C1          6.0050    0.2090   -0.2780 c         1 UNK      0.930600
      4 O           6.5540    0.8230   -1.1630 o         1 UNK     -0.778800
      5 O1          6.4750   -0.9910    0.0970 o         1 UNK     -0.778800
      6 C2          3.5280    0.1580   -0.1770 c3        1 UNK     -0.084400
      7 C3          2.3070    0.6550    0.6000 c3        1 UNK     -0.163400
      8 C4          1.0600    0.0310    0.0280 c         1 UNK      0.643100
      9 O2          1.1400   -0.7360   -0.9080 o         1 UNK     -0.635100
     10 N1         -0.1440    0.3260    0.5570 n         1 UNK     -0.516900
     11 C5         -1.3560   -0.2810    0.0010 c3        1 UNK      0.008700
     12 C6         -2.5400    0.6040    0.2940 c         1 UNK      0.641100
     13 O3         -2.3870    1.6390    0.9070 o         1 UNK     -0.711100
     14 C7         -1.5760   -1.6550    0.6370 c3        1 UNK      0.002700
     15 S          -0.1510   -2.7200    0.2840 sh        1 UNK     -0.471900
     16 N          -3.7700    0.2440   -0.1250 n         2 GLY     -0.474900
     17 CA         -4.9210    1.1040    0.1600 c3        2 GLY     -0.082000
     18 C          -6.1680    0.4800   -0.4120 c         2 GLY      0.902600
     19 O          -6.1020   -0.5740   -0.9970 o         2 GLY     -0.838300
     20 OXT        -7.3520    1.0970   -0.2710 o         2 GLY     -0.838300
     21 H           5.6040    2.6660    0.5720 hn        1 UNK      0.459467
     22 H1          3.9400    2.6380    0.6460 hn        1 UNK      0.459467
     23 H2          4.7120    2.4360   -0.8160 hn        1 UNK      0.459467
     24 H3          4.8440    0.5890    1.4540 hx        1 UNK      0.083700
     25 H4          3.5930   -0.9070   -0.0970 hc        1 UNK      0.091200
     26 H5          3.4320    0.4330   -1.2070 hc        1 UNK      0.091200
     27 H6          2.2420    1.7200    0.5190 hc        1 UNK      0.068700
     28 H7          2.4030    0.3810    1.6300 hc        1 UNK      0.068700
     29 H8         -0.2090    0.9490    1.3170 hn        1 UNK      0.301500
     30 H9         -1.2470   -0.3920   -1.0580 h1        1 UNK      0.112700
     31 H10        -2.4620   -2.0980    0.2310 h1        1 UNK      0.099700
     32 H11        -1.6850   -1.5450    1.6960 h1        1 UNK      0.099700
     33 H12        -0.0120   -2.8600   -1.0620 hs        1 UNK      0.316800
     34 H          -3.8940   -0.5970   -0.6220 hn        2 GLY      0.305500
     35 HA1        -4.7670    2.0650   -0.2840 h1        2 GLY      0.059200
     36 HA2        -5.0310    1.2140    1.2190 h1        2 GLY      0.059200
@<TRIPOS>BOND
     1    1    2 1   
     2    2    3 1   
     3    2    6 1   
     4    3    4 1   
     5    3    5 1   
     6    6    7 1   
     7    7    8 1   
     8    8    9 2   
     9    8   10 1   
    10   10   11 1   
    11   11   12 1   
    12   11   14 1   
    13   12   13 2   
    14   12   16 1   
    15   14   15 1   
    16   16   17 1   
    17   17   18 1   
    18   18   19 1   
    19   18   20 1   
    20    1   21 1   
    21    1   22 1   
    22    1   23 1   
    23    2   24 1   
    24    6   25 1   
    25    6   26 1   
    26    7   27 1   
    27    7   28 1   
    28   10   29 1   
    29   11   30 1   
    30   14   31 1   
    31   14   32 1   
    32   15   33 1   
    33   16   34 1   
    34   17   35 1   
    35   17   36 1   
@<TRIPOS>SUBSTRUCTURE
     1 UNK         1 TEMP              0 ****  ****    0 ROOT
