@<TRIPOS>MOLECULE
CRP
   38    39     1     0     0
SMALL
bcc


@<TRIPOS>ATOM
      1 Cl          1.0410   -0.0490    6.6060 C.l       1 LIG     -0.092400
      2 C          -0.8010    0.0330    2.5000 C.a       1 LIG     -0.108300
      3 C1         -1.3840   -0.7160    3.5040 C.a       1 LIG     -0.111000
      4 C2         -0.8190   -0.7420    4.7650 C.a       1 LIG     -0.125000
      5 C3          0.3300   -0.0170    5.0230 C.a       1 LIG      0.019400
      6 C4          0.9130    0.7330    4.0180 C.a       1 LIG     -0.125000
      7 C5          0.3500    0.7540    2.7560 C.a       1 LIG     -0.111000
      8 C6         -1.4170    0.0610    1.1260 C.3       1 LIG      0.142000
      9 C7         -2.4290    1.2060    1.0430 C.3       1 LIG     -0.102100
     10 N          -0.3680    0.2640    0.1240 N.        1 LIG     -0.564900
     11 C8         -0.5100   -0.2500   -1.1130 C.        1 LIG      0.692100
     12 O          -1.4610   -0.9570   -1.3710 O.3       1 LIG     -0.582100
     13 C9          0.5130    0.0530   -2.1770 C.x       1 LIG     -0.165000
     14 C10         0.0230    0.1450   -3.6240 C.x       1 LIG      0.109800
     15 C11         0.4270    1.4140   -2.8710 C.x       1 LIG     -0.100700
     16 C12         1.7420    2.0850   -3.2740 C.3       1 LIG     -0.079100
     17 C13         1.9060   -0.5310   -1.9390 C.3       1 LIG     -0.046400
     18 C14         1.7750   -1.9440   -1.3650 C.3       1 LIG     -0.101100
     19 Cl1         1.1320   -0.4450   -4.9170 C.l       1 LIG     -0.086900
     20 Cl2        -1.7340   -0.1190   -3.9250 C.l       1 LIG     -0.086900
     21 H          -2.2420   -1.2560    3.3120 H         1 LIG      0.139500
     22 H1         -1.2550   -1.3020    5.5140 H         1 LIG      0.148500
     23 H2          1.7690    1.2770    4.2100 H         1 LIG      0.148500
     24 H3          0.7890    1.3080    2.0040 H         1 LIG      0.139500
     25 H4         -1.9140   -0.8680    0.9400 H         1 LIG      0.097700
     26 H5         -1.9320    2.1350    1.2290 H         1 LIG      0.045367
     27 H6         -3.1960    1.0580    1.7750 H         1 LIG      0.045367
     28 H7         -2.8670    1.2250    0.0670 H         1 LIG      0.045367
     29 H8          0.4410    0.7760    0.3550 H         1 LIG      0.307500
     30 H9         -0.0480    2.3470   -2.6510 H         1 LIG      0.099700
     31 H10         2.4510    1.3370   -3.5620 H         1 LIG      0.051033
     32 H11         2.1270    2.6410   -2.4450 H         1 LIG      0.051033
     33 H12         1.5670    2.7460   -4.0970 H         1 LIG      0.051033
     34 H13         2.4390    0.0870   -1.2470 H         1 LIG      0.052700
     35 H14         2.4400   -0.5700   -2.8660 H         1 LIG      0.052700
     36 H15         1.2410   -1.9050   -0.4380 H         1 LIG      0.049033
     37 H16         2.7500   -2.3530   -1.1980 H         1 LIG      0.049033
     38 H17         1.2420   -2.5620   -2.0570 H         1 LIG      0.049033
@<TRIPOS>BOND
     1    1    5 1   
     2    2    3 ar  
     3    2    7 ar  
     4    2    8 1   
     5    3    4 ar  
     6    4    5 ar  
     7    5    6 ar  
     8    6    7 ar  
     9    8    9 1   
    10    8   10 1   
    11   10   11 1   
    12   11   12 2   
    13   11   13 1   
    14   13   14 1   
    15   13   15 1   
    16   13   17 1   
    17   14   15 1   
    18   14   19 1   
    19   14   20 1   
    20   15   16 1   
    21   17   18 1   
    22    3   21 1   
    23    4   22 1   
    24    6   23 1   
    25    7   24 1   
    26    8   25 1   
    27    9   26 1   
    28    9   27 1   
    29    9   28 1   
    30   10   29 1   
    31   15   30 1   
    32   16   31 1   
    33   16   32 1   
    34   16   33 1   
    35   17   34 1   
    36   17   35 1   
    37   18   36 1   
    38   18   37 1   
    39   18   38 1   
@<TRIPOS>SUBSTRUCTURE
     1 LIG         1 TEMP              0 ****  ****    0 ROOT
