@<TRIPOS>MOLECULE
ASO
   23    23     1     0     0
SMALL
bcc


@<TRIPOS>ATOM
      1 C           1.7440    0.1800   -0.4660 C.3       1 LIG      0.098400
      2 C1          0.8050   -0.2660   -1.5890 C.3       1 LIG      0.079100
      3 C2         -0.6120    0.2300   -1.2820 C.3       1 LIG      0.072100
      4 C3         -1.0020   -0.2430    0.1220 C.3       1 LIG      0.086100
      5 C4          0.0720    0.2030    1.1160 C.3       1 LIG      0.063100
      6 C5         -0.3250   -0.2330    2.5270 C.3       1 LIG      0.140400
      7 O           1.2480    0.2850   -2.8310 O.h       1 LIG     -0.574800
      8 O1         -1.5250   -0.3030   -2.2420 O.h       1 LIG     -0.572800
      9 O2         -2.2590    0.3300    0.4880 O.h       1 LIG     -0.575800
     10 O3          1.3230   -0.3890    0.7710 O.2       1 LIG     -0.413600
     11 O4          0.6750    0.1850    3.4560 O.h       1 LIG     -0.594800
     12 H           1.7260    1.2470   -0.3910 H         1 LIG      0.060700
     13 H1          2.7380   -0.1490   -0.6860 H         1 LIG      0.060700
     14 H2          0.8060   -1.3340   -1.6590 H         1 LIG      0.088700
     15 H3         -0.6450    1.2980   -1.3290 H         1 LIG      0.075700
     16 H4         -1.0840   -1.3100    0.1330 H         1 LIG      0.089700
     17 H5          0.1630    1.2690    1.0830 H         1 LIG      0.054700
     18 H6         -0.4170   -1.2990    2.5580 H         1 LIG      0.064200
     19 H7         -1.2610    0.2150    2.7870 H         1 LIG      0.064200
     20 H8          1.2490    1.2530   -2.7730 H         1 LIG      0.405000
     21 H9         -1.5020   -1.2720   -2.2070 H         1 LIG      0.410000
     22 H10        -2.1880    1.2970    0.4790 H         1 LIG      0.407000
     23 H11         1.5240   -0.2200    3.2210 H         1 LIG      0.411000
@<TRIPOS>BOND
     1    1    2 1   
     2    1   10 1   
     3    2    3 1   
     4    2    7 1   
     5    3    4 1   
     6    3    8 1   
     7    4    5 1   
     8    4    9 1   
     9    5    6 1   
    10    5   10 1   
    11    6   11 1   
    12    1   12 1   
    13    1   13 1   
    14    2   14 1   
    15    3   15 1   
    16    4   16 1   
    17    5   17 1   
    18    6   18 1   
    19    6   19 1   
    20    7   20 1   
    21    8   21 1   
    22    9   22 1   
    23   11   23 1   
@<TRIPOS>SUBSTRUCTURE
     1 LIG         1 TEMP              0 ****  ****    0 ROOT
