@<TRIPOS>MOLECULE
4U3
   32    33     1     0     0
SMALL
bcc


@<TRIPOS>ATOM
      1 C          -1.9700    0.1180   -1.1480 C.        1 LIG      0.820900
      2 N          -3.0150    0.8150   -1.5910 N.c       1 LIG     -0.762100
      3 C1         -4.0800    1.0010   -0.8230 C.d       1 LIG      0.724500
      4 C2         -4.1050    0.4550    0.4780 C.d       1 LIG     -0.323200
      5 C3         -3.0350   -0.2520    0.9140 C.c       1 LIG      0.108600
      6 Cl         -5.4870    0.6850    1.5030 C.l       1 LIG     -0.073400
      7 P           4.5890    1.1020    0.2010 P.5       1 LIG      1.337900
      8 O           5.7070    0.1750   -0.0820 O.3       1 LIG     -0.924500
      9 O1          4.2960    2.0030   -1.1010 O.3       1 LIG     -0.924500
     10 C4          2.7300   -0.7570   -0.2720 C.3       1 LIG      0.227400
     11 O2          3.2720    0.2570    0.5770 O.2       1 LIG     -0.568200
     12 C5          1.4840   -1.3580    0.3820 C.3       1 LIG      0.063100
     13 O3          0.4060   -0.3970    0.3890 O.2       1 LIG     -0.439600
     14 C6          0.9530   -2.5410   -0.4570 C.3       1 LIG      0.104100
     15 O4          1.4000   -3.7840    0.0900 O.h       1 LIG     -0.656800
     16 C7         -0.5830   -2.4200   -0.3480 C.3       1 LIG     -0.118400
     17 C8         -0.7990   -1.1780    0.5450 C.3       1 LIG      0.291500
     18 N1         -1.9630   -0.4160    0.0870 N.        1 LIG     -0.363000
     19 O5         -1.0040   -0.0430   -1.8770 O.3       1 LIG     -0.684500
     20 N2         -5.1530    1.7240   -1.2910 N.h       1 LIG     -0.901800
     21 O6          4.9840    2.0570    1.4360 O.3       1 LIG     -0.924500
     22 H          -3.0310   -0.6620    1.8610 H         1 LIG      0.319000
     23 H1          3.4600   -1.5250   -0.4210 H         1 LIG     -0.003800
     24 H2          2.4660   -0.3280   -1.2160 H         1 LIG     -0.003800
     25 H3          1.7660   -1.6570    1.3700 H         1 LIG      0.043700
     26 H4          1.2970   -2.5150   -1.4700 H         1 LIG      0.153700
     27 H5          1.1110   -3.8540    1.0130 H         1 LIG      0.481000
     28 H6         -1.0020   -3.2930    0.1070 H         1 LIG      0.050200
     29 H7         -1.0570   -2.3280   -1.3030 H         1 LIG      0.050200
     30 H8         -0.9820   -1.4410    1.5660 H         1 LIG      0.092700
     31 H9         -5.1320    2.1040   -2.1990 H         1 LIG      0.401800
     32 H10        -5.9410    1.8620   -0.7180 H         1 LIG      0.401800
@<TRIPOS>BOND
     1    1    2 1   
     2    1   18 1   
     3    2    3 2   
     4    3   20 1   
     5    3    4 1   
     6    4    6 1   
     7    5    4 2   
     8    7    8 1   
     9    7   21 1   
    10    9    7 1   
    11   10   11 1   
    12   11    7 1   
    13   12   14 1   
    14   12   10 1   
    15   13   12 1   
    16   15   14 1   
    17   16   14 1   
    18   17   13 1   
    19   17   18 1   
    20   17   16 1   
    21   18    5 1   
    22   19    1 2   
    23    5   22 1   
    24   10   23 1   
    25   10   24 1   
    26   12   25 1   
    27   14   26 1   
    28   15   27 1   
    29   16   28 1   
    30   16   29 1   
    31   17   30 1   
    32   20   31 1   
    33   20   32 1   
@<TRIPOS>SUBSTRUCTURE
     1 LIG         1 TEMP              0 ****  ****    0 ROOT
