@<TRIPOS>MOLECULE
PSU
   32    33     1     0     0
SMALL
bcc


@<TRIPOS>ATOM
      1 N          -0.8700    1.1010    4.5170 n         1 LIG     -0.411100
      2 C          -1.5870   -0.0350    4.5670 c         1 LIG      0.781500
      3 N1         -1.5100   -0.9460    3.5800 n         1 LIG     -0.604500
      4 C1         -0.7100   -0.7280    2.5160 c         1 LIG      0.733700
      5 C2          0.0530    0.4610    2.4530 cc        1 LIG     -0.373400
      6 C3         -0.0430    1.3570    3.4580 cd        1 LIG      0.106600
      7 O          -2.3160   -0.2430    5.5180 o         1 LIG     -0.711500
      8 O1         -0.6390   -1.5520    1.6210 o         1 LIG     -0.702500
      9 C4          0.9590    0.7260    1.2780 c3        1 LIG      0.191300
     10 C5          2.0310   -0.3800    1.1650 c3        1 LIG      0.120100
     11 O2          3.2610    0.0480    1.7510 oh        1 LIG     -0.615800
     12 C6          2.1990   -0.5850   -0.3570 c3        1 LIG      0.030100
     13 C7          1.2080    0.4180   -0.9860 c3        1 LIG      0.075100
     14 O3          3.5370   -0.2860   -0.7580 oh        1 LIG     -0.636800
     15 O4          0.2170    0.6490    0.0420 os        1 LIG     -0.442600
     16 C8          0.5530   -0.1780   -2.2330 c3        1 LIG      0.200400
     17 O5         -0.4090    0.7410   -2.7510 os        1 LIG     -0.577200
     18 P          -1.0560    0.0520   -4.0550 p5        1 LIG      1.333900
     19 O6         -1.7010   -1.2220   -3.6700 o         1 LIG     -0.916833
     20 O7         -2.1560    1.0390   -4.6940 o         1 LIG     -0.916833
     21 O8          0.0990   -0.2360   -5.1380 o         1 LIG     -0.916833
     22 H          -0.9410    1.7550    5.2500 hn        1 LIG      0.424500
     23 H1         -2.0390   -1.7740    3.6350 hn        1 LIG      0.314500
     24 H2          0.5050    2.2310    3.4280 h4        1 LIG      0.289000
     25 H3          1.3900    1.6930    1.4310 h1        1 LIG      0.072700
     26 H4          1.7500   -1.2780    1.6750 h1        1 LIG      0.092700
     27 H5          3.5580    0.8640    1.3190 ho        1 LIG      0.403000
     28 H6          2.0100   -1.5940   -0.6590 h1        1 LIG      0.195700
     29 H7          1.6920    1.3200   -1.2970 h1        1 LIG      0.035700
     30 H8          3.7550    0.6240   -0.5030 ho        1 LIG      0.410000
     31 H9          0.0670   -1.0960   -1.9760 h1        1 LIG      0.008200
     32 H10         1.3020   -0.3660   -2.9740 h1        1 LIG      0.008200
@<TRIPOS>BOND
     1    1    2 1   
     2    1    6 1   
     3    2    3 1   
     4    2    7 2   
     5    3    4 1   
     6    4    5 1   
     7    4    8 2   
     8    5    6 2   
     9    5    9 1   
    10    9   10 1   
    11    9   15 1   
    12   10   11 1   
    13   10   12 1   
    14   12   13 1   
    15   12   14 1   
    16   13   15 1   
    17   13   16 1   
    18   16   17 1   
    19   17   18 1   
    20   18   19 1   
    21   18   20 1   
    22   18   21 1   
    23    1   22 1   
    24    3   23 1   
    25    6   24 1   
    26    9   25 1   
    27   10   26 1   
    28   11   27 1   
    29   12   28 1   
    30   13   29 1   
    31   14   30 1   
    32   16   31 1   
    33   16   32 1   
@<TRIPOS>SUBSTRUCTURE
     1 LIG         1 TEMP              0 ****  ****    0 ROOT
