@<TRIPOS>MOLECULE
PTG
   50    50     1     0     0
SMALL
bcc


@<TRIPOS>ATOM
      1 C           9.5910   -2.3740    0.7010 c3        1 LIG     -0.092100
      2 C1          8.0730   -2.4150    0.8910 c3        1 LIG     -0.080400
      3 C2          7.4030   -1.5400   -0.1700 c3        1 LIG     -0.079400
      4 C3          5.8850   -1.5820    0.0200 c3        1 LIG     -0.077400
      5 C4          5.2150   -0.7060   -1.0410 c3        1 LIG     -0.053200
      6 C5          3.7200   -0.7470   -0.8550 c2        1 LIG     -0.141200
      7 C6          3.0340    0.3890   -0.7070 ce        1 LIG     -0.159000
      8 C7          1.5840    0.3490   -0.5260 ce        1 LIG     -0.044000
      9 C8          0.8880    1.5010   -0.3760 cf        1 LIG     -0.213400
     10 C9          1.4180    2.8680   -0.3700 c         1 LIG      0.569500
     11 O           2.5880    3.1830   -0.5010 o         1 LIG     -0.545100
     12 C10         0.2940    3.7920   -0.1770 ce        1 LIG     -0.271200
     13 C11        -0.8530    3.1410   -0.0670 c2        1 LIG     -0.089200
     14 C12        -0.6050    1.6570   -0.1850 c3        1 LIG     -0.014300
     15 C13        -1.0510    0.9480    1.0950 c3        1 LIG     -0.023200
     16 C14        -2.5520    1.0070    1.2060 c2        1 LIG     -0.233200
     17 C15        -3.2430   -0.0970    1.3480 c2        1 LIG     -0.115200
     18 C16        -4.7450   -0.0370    1.4590 c3        1 LIG     -0.062200
     19 C17        -5.3710   -0.9360    0.3910 c3        1 LIG     -0.063400
     20 C18        -6.8960   -0.8750    0.5040 c3        1 LIG     -0.196400
     21 C19        -7.5130   -1.7600   -0.5490 c         1 LIG      0.908600
     22 O1         -6.8060   -2.3750   -1.3110 o         1 LIG     -0.850300
     23 O2         -8.8480   -1.8640   -0.6400 o         1 LIG     -0.850300
     24 H          10.0600   -2.9860    1.4430 hc        1 LIG      0.030700
     25 H1          9.9360   -1.3660    0.8000 hc        1 LIG      0.030700
     26 H2          9.8390   -2.7410   -0.2730 hc        1 LIG      0.030700
     27 H3          7.8250   -2.0470    1.8650 hc        1 LIG      0.039700
     28 H4          7.7280   -3.4230    0.7920 hc        1 LIG      0.039700
     29 H5          7.6510   -1.9070   -1.1440 hc        1 LIG      0.039200
     30 H6          7.7470   -0.5320   -0.0710 hc        1 LIG      0.039200
     31 H7          5.6370   -1.2150    0.9940 hc        1 LIG      0.043700
     32 H8          5.5400   -2.5900   -0.0790 hc        1 LIG      0.043700
     33 H9          5.4630   -1.0730   -2.0150 hc        1 LIG      0.050700
     34 H10         5.5590    0.3020   -0.9410 hc        1 LIG      0.050700
     35 H11         3.2260   -1.6530   -0.8420 ha        1 LIG      0.122000
     36 H12         3.5270    1.2950   -0.7200 ha        1 LIG      0.156000
     37 H13         1.0910   -0.5570   -0.5120 ha        1 LIG      0.130000
     38 H14         0.3860    4.8190   -0.1330 ha        1 LIG      0.154000
     39 H15        -1.7750    3.5810    0.0770 ha        1 LIG      0.150000
     40 H16        -1.1520    1.2270   -0.9980 hc        1 LIG      0.086700
     41 H17        -0.6120    1.4320    1.9420 hc        1 LIG      0.045700
     42 H18        -0.7360   -0.0740    1.0640 hc        1 LIG      0.045700
     43 H19        -3.0360    1.9180    1.1700 ha        1 LIG      0.114000
     44 H20        -2.7590   -1.0080    1.3840 ha        1 LIG      0.120000
     45 H21        -5.0740    0.9710    1.3140 hc        1 LIG      0.039200
     46 H22        -5.0450   -0.3740    2.4290 hc        1 LIG      0.039200
     47 H23        -5.0430   -1.9440    0.5360 hc        1 LIG      0.047200
     48 H24        -5.0710   -0.6000   -0.5790 hc        1 LIG      0.047200
     49 H25        -7.2240    0.1330    0.3600 hc        1 LIG      0.020200
     50 H26        -7.1960   -1.2120    1.4740 hc        1 LIG      0.020200
@<TRIPOS>BOND
     1    1    2 1   
     2    2    3 1   
     3    3    4 1   
     4    4    5 1   
     5    5    6 1   
     6    6    7 2   
     7    7    8 1   
     8    8    9 2   
     9    9   10 1   
    10    9   14 1   
    11   10   11 2   
    12   12   13 2   
    13   12   10 1   
    14   13   14 1   
    15   14   15 1   
    16   15   16 1   
    17   16   17 2   
    18   17   18 1   
    19   18   19 1   
    20   19   20 1   
    21   20   21 1   
    22   21   22 1   
    23   21   23 1   
    24    1   24 1   
    25    1   25 1   
    26    1   26 1   
    27    2   27 1   
    28    2   28 1   
    29    3   29 1   
    30    3   30 1   
    31    4   31 1   
    32    4   32 1   
    33    5   33 1   
    34    5   34 1   
    35    6   35 1   
    36    7   36 1   
    37    8   37 1   
    38   12   38 1   
    39   13   39 1   
    40   14   40 1   
    41   15   41 1   
    42   15   42 1   
    43   16   43 1   
    44   17   44 1   
    45   18   45 1   
    46   18   46 1   
    47   19   47 1   
    48   19   48 1   
    49   20   49 1   
    50   20   50 1   
@<TRIPOS>SUBSTRUCTURE
     1 LIG         1 TEMP              0 ****  ****    0 ROOT
