@<TRIPOS>MOLECULE
0A1
   27    27     1     0     0
SMALL
bcc


@<TRIPOS>ATOM
      1 N           1.9260    1.3560    0.9570 n4        1 LIG     -0.835600
      2 CA          2.0980   -0.0060    0.4340 c3        1 LIG     -0.068500
      3 C           1.3050   -0.1570   -0.8660 c3        1 LIG     -0.044100
      4 C1         -0.1680   -0.0240   -0.5750 ca        1 LIG     -0.152300
      5 C2         -0.7710    1.2190   -0.6220 ca        1 LIG     -0.105000
      6 C3         -2.1210    1.3430   -0.3540 ca        1 LIG     -0.176500
      7 C4         -2.8710    0.2200   -0.0390 ca        1 LIG      0.129100
      8 O          -4.1990    0.3400    0.2240 os        1 LIG     -0.324900
      9 C5         -4.9080   -0.8600    0.5410 c3        1 LIG      0.111700
     10 C6         -2.2630   -1.0260    0.0070 ca        1 LIG     -0.176500
     11 C7         -0.9140   -1.1460   -0.2660 ca        1 LIG     -0.105000
     12 C8          3.5580   -0.2610    0.1640 c         1 LIG      0.935600
     13 OXT         4.3190    0.6690    0.0310 o         1 LIG     -0.757300
     14 O1          4.0140   -1.5200    0.0710 o         1 LIG     -0.757300
     15 H1          2.4550    1.4570    1.8230 hn        1 LIG      0.444800
     16 H2          0.9370    1.5280    1.1400 hn        1 LIG      0.444800
     17 H3          2.2670    2.0290    0.2710 hn        1 LIG      0.444800
     18 HA          1.7400   -0.7120    1.1540 hx        1 LIG      0.087700
     19 H           1.4990   -1.1190   -1.2920 hc        1 LIG      0.091700
     20 H4          1.6020    0.6050   -1.5560 hc        1 LIG      0.091700
     21 H5         -0.2130    2.0550   -0.8570 ha        1 LIG      0.138500
     22 H6         -2.5710    2.2710   -0.3880 ha        1 LIG      0.149000
     23 H7         -5.9360   -0.6290    0.7250 h1        1 LIG      0.048367
     24 H8         -4.4810   -1.3060    1.4150 h1        1 LIG      0.048367
     25 H9         -4.8380   -1.5430   -0.2800 h1        1 LIG      0.048367
     26 H10        -2.8180   -1.8630    0.2450 ha        1 LIG      0.149000
     27 H11        -0.4630   -2.0740   -0.2390 ha        1 LIG      0.138500
@<TRIPOS>BOND
     1    1    2 1   
     2    2   12 1   
     3    2    3 1   
     4    3    4 1   
     5    4    5 ar  
     6    4   11 ar  
     7    5    6 ar  
     8    6    7 ar  
     9    7    8 1   
    10    8    9 1   
    11   10    7 ar  
    12   11   10 ar  
    13   12   14 1   
    14   12   13 1   
    15    1   15 1   
    16    1   16 1   
    17    1   17 1   
    18    2   18 1   
    19    3   19 1   
    20    3   20 1   
    21    5   21 1   
    22    6   22 1   
    23    9   23 1   
    24    9   24 1   
    25    9   25 1   
    26   10   26 1   
    27   11   27 1   
@<TRIPOS>SUBSTRUCTURE
     1 LIG         1 TEMP              0 ****  ****    0 ROOT
