@<TRIPOS>MOLECULE
DNW
   29    29     1     0     0
SMALL
bcc


@<TRIPOS>ATOM
      1 N          -3.6120    1.0510    1.0190 n4        1 LIG     -0.825600
      2 CA         -3.5120    0.1550   -0.1410 c3        1 LIG     -0.110500
      3 C          -2.1570   -0.5560   -0.1200 c3        1 LIG      0.187800
      4 N1         -1.0840    0.4400   -0.0560 nh        1 LIG     -0.768600
      5 C1          0.2500    0.0270   -0.0270 ca        1 LIG      0.290600
      6 C2          1.2710    0.9680   -0.0840 ca        1 LIG     -0.282200
      7 N2          0.9460    2.4090   -0.1750 no        1 LIG      0.327200
      8 O          -0.0030    2.7790   -0.8430 o         1 LIG     -0.219000
      9 O1          1.6280    3.2260    0.4190 o         1 LIG     -0.219000
     10 C3          2.5890    0.5570   -0.0550 ca        1 LIG      0.036000
     11 C4          2.8930   -0.7890    0.0300 ca        1 LIG     -0.247200
     12 N3          4.3070   -1.2260    0.0550 no        1 LIG      0.325200
     13 O2          4.5770   -2.4120    0.1250 o         1 LIG     -0.201500
     14 O3          5.2010   -0.4000    0.0050 o         1 LIG     -0.201500
     15 C5          1.8800   -1.7280    0.0860 ca        1 LIG      0.014000
     16 C6          0.5590   -1.3240    0.0640 ca        1 LIG     -0.231000
     17 C7         -4.6170   -0.8680   -0.0830 c         1 LIG      0.948600
     18 O4         -5.1740   -1.0970    0.9640 o         1 LIG     -0.740300
     19 OXT        -4.9820   -1.5250   -1.1950 o         1 LIG     -0.740300
     20 H1         -4.5150    1.5250    1.0060 hn        1 LIG      0.450467
     21 H2         -2.8640    1.7430    0.9800 hn        1 LIG      0.450467
     22 H3         -3.5270    0.5070    1.8770 hn        1 LIG      0.450467
     23 HA         -3.6020    0.7260   -1.0420 hx        1 LIG      0.100700
     24 H          -2.0480   -1.1420   -1.0090 h1        1 LIG      0.095200
     25 H4         -2.1030   -1.1950    0.7370 h1        1 LIG      0.095200
     26 H5         -1.3030    1.3990   -0.0340 hn        1 LIG      0.454800
     27 H6          3.3480    1.2550   -0.0970 ha        1 LIG      0.207000
     28 H7          2.1110   -2.7320    0.1440 ha        1 LIG      0.184000
     29 H8         -0.1970   -2.0250    0.1150 ha        1 LIG      0.169000
@<TRIPOS>BOND
     1    2   17 1   
     2    2    3 1   
     3    2    1 1   
     4    4    3 1   
     5    5    4 1   
     6    6    5 ar  
     7    6    7 1   
     8    7    8 1   
     9    9    7 1   
    10   10    6 ar  
    11   11   15 ar  
    12   11   10 ar  
    13   12   11 1   
    14   13   12 1   
    15   14   12 1   
    16   15   16 ar  
    17   16    5 ar  
    18   17   18 1   
    19   17   19 1   
    20    1   20 1   
    21    1   21 1   
    22    1   22 1   
    23    2   23 1   
    24    3   24 1   
    25    3   25 1   
    26    4   26 1   
    27   10   27 1   
    28   15   28 1   
    29   16   29 1   
@<TRIPOS>SUBSTRUCTURE
     1 LIG         1 TEMP              0 ****  ****    0 ROOT
