@<TRIPOS>MOLECULE
9PL
   31    32     1     0     0
SMALL
bcc


@<TRIPOS>ATOM
      1 N          -2.8460   -0.7150   -0.1600 N.a       1 LIG     -0.201900
      2 C          -3.9420    0.0710   -0.0820 C.c       1 LIG      0.392400
      3 N1         -3.6060    1.2040    0.4720 N.d       1 LIG     -0.662000
      4 C1         -2.2970    1.1820    0.7660 C.d       1 LIG      0.301200
      5 C2         -1.8050   -0.0120    0.3840 C.c       1 LIG     -0.227900
      6 C3         -2.7850   -2.0680   -0.7160 C.3       1 LIG      0.022600
      7 C4         -0.3790   -0.4800    0.5190 C.3       1 LIG      0.004900
      8 C5          0.4270   -0.0190   -0.6970 C.3       1 LIG     -0.094700
      9 C6          0.5410    1.5220   -0.7300 C.3       1 LIG      0.122400
     10 O           1.7720    1.8120   -0.0050 O.2       1 LIG     -0.408900
     11 C7          2.6430    0.8050   -0.1640 C.        1 LIG      0.714600
     12 C8          1.9040   -0.4560   -0.5760 C.3       1 LIG     -0.148700
     13 C9          2.0550   -1.5370    0.4960 C.3       1 LIG     -0.065400
     14 C10         3.5170   -1.9810    0.5700 C.3       1 LIG     -0.107100
     15 O1          3.8380    0.8880   -0.0040 O.3       1 LIG     -0.566500
     16 H          -4.8880   -0.1820   -0.4070 H         1 LIG      0.062100
     17 H1         -1.7610    1.9460    1.2070 H         1 LIG      0.044100
     18 H2         -3.7550   -2.3530   -1.0670 H         1 LIG      0.053700
     19 H3         -2.4650   -2.7510    0.0430 H         1 LIG      0.053700
     20 H4         -2.0910   -2.0880   -1.5300 H         1 LIG      0.053700
     21 H5         -0.3580   -1.5480    0.5760 H         1 LIG      0.063700
     22 H6          0.0490   -0.0660    1.4080 H         1 LIG      0.063700
     23 H7         -0.0750   -0.4310   -1.5470 H         1 LIG      0.060700
     24 H8         -0.2990    1.9740   -0.2450 H         1 LIG      0.070200
     25 H9          0.5560    1.9080   -1.7280 H         1 LIG      0.070200
     26 H10         2.2820   -0.8710   -1.4870 H         1 LIG      0.088700
     27 H11         1.4400   -2.3760    0.2460 H         1 LIG      0.049200
     28 H12         1.7530   -1.1440    1.4440 H         1 LIG      0.049200
     29 H13         3.8190   -2.3740   -0.3780 H         1 LIG      0.047033
     30 H14         3.6230   -2.7370    1.3200 H         1 LIG      0.047033
     31 H15         4.1320   -1.1420    0.8200 H         1 LIG      0.047033
@<TRIPOS>BOND
     1    1    2 ar  
     2    1    6 1   
     3    3    2 ar  
     4    4    3 ar  
     5    4    5 ar  
     6    5    1 ar  
     7    7    5 1   
     8    8    7 1   
     9    9    8 1   
    10   10    9 1   
    11   11   10 1   
    12   11   12 1   
    13   12    8 1   
    14   13   12 1   
    15   14   13 1   
    16   15   11 2   
    17    2   16 1   
    18    4   17 1   
    19    6   18 1   
    20    6   19 1   
    21    6   20 1   
    22    7   21 1   
    23    7   22 1   
    24    8   23 1   
    25    9   24 1   
    26    9   25 1   
    27   12   26 1   
    28   13   27 1   
    29   13   28 1   
    30   14   29 1   
    31   14   30 1   
    32   14   31 1   
@<TRIPOS>SUBSTRUCTURE
     1 LIG         1 TEMP              0 ****  ****    0 ROOT
