@<TRIPOS>MOLECULE
D9G
   52    51     1     0     0
SMALL
bcc


@<TRIPOS>ATOM
      1 C          10.3800   -0.5540    0.0390 C.3       1 LIG     -0.093100
      2 C1          9.1620    0.3710    0.0010 C.3       1 LIG     -0.080400
      3 C2          7.8830   -0.4680    0.0290 C.3       1 LIG     -0.079400
      4 C3          6.6650    0.4580   -0.0100 C.3       1 LIG     -0.079400
      5 C4          5.3860   -0.3810    0.0180 C.3       1 LIG     -0.079400
      6 C5          4.1680    0.5440   -0.0210 C.3       1 LIG     -0.079400
      7 C6          2.8890   -0.2950    0.0070 C.3       1 LIG     -0.079400
      8 C7          1.6710    0.6300   -0.0310 C.3       1 LIG     -0.079400
      9 C8          0.3920   -0.2090   -0.0040 C.3       1 LIG     -0.079400
     10 C9         -0.8260    0.7170   -0.0420 C.3       1 LIG     -0.079400
     11 C10        -2.1050   -0.1220   -0.0140 C.3       1 LIG     -0.099400
     12 C11        -3.3230    0.8030   -0.0530 C.3       1 LIG      0.100800
     13 N          -4.5510   -0.0020   -0.0260 N.4       1 LIG     -0.567800
     14 C12        -4.5770   -0.8940   -1.1930 C.3       1 LIG      0.085100
     15 C13        -4.5840   -0.8040    1.2040 C.3       1 LIG      0.085100
     16 C14        -5.7200    0.8860   -0.0630 C.3       1 LIG     -0.059200
     17 C15        -6.9800    0.0630    0.0250 C.        1 LIG      0.933600
     18 O          -8.0640    0.6150    0.1130 O.3       1 LIG     -0.772300
     19 O1         -6.9150   -1.1540    0.0090 O.3       1 LIG     -0.772300
     20 H          11.2740    0.0330    0.0190 H         1 LIG      0.033033
     21 H1         10.3610   -1.2040   -0.8110 H         1 LIG      0.033033
     22 H2         10.3560   -1.1380    0.9350 H         1 LIG      0.033033
     23 H3          9.1860    0.9550   -0.8950 H         1 LIG      0.038700
     24 H4          9.1810    1.0210    0.8510 H         1 LIG      0.038700
     25 H5          7.8590   -1.0520    0.9250 H         1 LIG      0.039700
     26 H6          7.8640   -1.1180   -0.8210 H         1 LIG      0.039700
     27 H7          6.6890    1.0420   -0.9060 H         1 LIG      0.039700
     28 H8          6.6840    1.1080    0.8400 H         1 LIG      0.039700
     29 H9          5.3620   -0.9650    0.9140 H         1 LIG      0.040700
     30 H10         5.3670   -1.0310   -0.8320 H         1 LIG      0.040700
     31 H11         4.1920    1.1280   -0.9170 H         1 LIG      0.040700
     32 H12         4.1870    1.1940    0.8290 H         1 LIG      0.040700
     33 H13         2.8650   -0.8790    0.9030 H         1 LIG      0.040700
     34 H14         2.8700   -0.9450   -0.8430 H         1 LIG      0.040700
     35 H15         1.6950    1.2150   -0.9270 H         1 LIG      0.042700
     36 H16         1.6900    1.2790    0.8190 H         1 LIG      0.042700
     37 H17         0.3680   -0.7940    0.8920 H         1 LIG      0.043700
     38 H18         0.3730   -0.8580   -0.8540 H         1 LIG      0.043700
     39 H19        -0.8020    1.3010   -0.9380 H         1 LIG      0.048700
     40 H20        -0.8070    1.3670    0.8080 H         1 LIG      0.048700
     41 H21        -2.1290   -0.7060    0.8820 H         1 LIG      0.057700
     42 H22        -2.1240   -0.7720   -0.8640 H         1 LIG      0.057700
     43 H23        -3.2990    1.3870   -0.9500 H         1 LIG      0.083700
     44 H24        -3.3040    1.4530    0.7970 H         1 LIG      0.083700
     45 H25        -3.7250   -1.5410   -1.1660 H         1 LIG      0.096700
     46 H26        -4.5530   -0.3100   -2.0890 H         1 LIG      0.096700
     47 H27        -5.4720   -1.4810   -1.1740 H         1 LIG      0.096700
     48 H28        -3.7320   -1.4510    1.2310 H         1 LIG      0.096700
     49 H29        -5.4780   -1.3910    1.2230 H         1 LIG      0.096700
     50 H30        -4.5650   -0.1540    2.0540 H         1 LIG      0.096700
     51 H31        -5.7190    1.4390   -0.9790 H         1 LIG      0.076700
     52 H32        -5.6790    1.5640    0.7640 H         1 LIG      0.076700
@<TRIPOS>BOND
     1    1    2 1   
     2    2    3 1   
     3    3    4 1   
     4    4    5 1   
     5    5    6 1   
     6    6    7 1   
     7    7    8 1   
     8    8    9 1   
     9    9   10 1   
    10   10   11 1   
    11   11   12 1   
    12   12   13 1   
    13   13   14 1   
    14   13   15 1   
    15   13   16 1   
    16   16   17 1   
    17   17   18 1   
    18   17   19 1   
    19    1   20 1   
    20    1   21 1   
    21    1   22 1   
    22    2   23 1   
    23    2   24 1   
    24    3   25 1   
    25    3   26 1   
    26    4   27 1   
    27    4   28 1   
    28    5   29 1   
    29    5   30 1   
    30    6   31 1   
    31    6   32 1   
    32    7   33 1   
    33    7   34 1   
    34    8   35 1   
    35    8   36 1   
    36    9   37 1   
    37    9   38 1   
    38   10   39 1   
    39   10   40 1   
    40   11   41 1   
    41   11   42 1   
    42   12   43 1   
    43   12   44 1   
    44   14   45 1   
    45   14   46 1   
    46   14   47 1   
    47   15   48 1   
    48   15   49 1   
    49   15   50 1   
    50   16   51 1   
    51   16   52 1   
@<TRIPOS>SUBSTRUCTURE
     1 LIG         1 TEMP              0 ****  ****    0 ROOT
