@<TRIPOS>MOLECULE
JJJ
   25    25     1     0     0
SMALL
bcc


@<TRIPOS>ATOM
      1 C1          4.1880    0.2020   -0.1010 c         1 <1>      0.947600
      2 N1          2.9090   -1.7020    0.7000 n4        1 <1>     -0.829600
      3 O1          4.8120    0.1360    0.9310 o         1 <1>     -0.743300
      4 N2         -4.1550   -1.3200   -0.3130 nb        1 <1>     -0.668000
      5 C2         -2.8720   -1.0280   -0.2680 ca        1 <1>      0.446200
      6 C3         -2.4480    0.2660    0.0340 ca        1 <1>     -0.297900
      7 C4         -3.4110    1.2510    0.2870 ca        1 <1>     -0.032000
      8 C5         -4.7470    0.8930    0.2260 ca        1 <1>     -0.259300
      9 C6         -5.0840   -0.4130   -0.0800 ca        1 <1>      0.429200
     10 C7         -1.0080    0.5930    0.0860 c         1 <1>      0.612300
     11 O2         -0.6500    1.7250    0.3500 o         1 <1>     -0.515100
     12 C8          2.9220   -0.5990   -0.2700 c3        1 <1>     -0.084500
     13 C9          1.7110    0.3050   -0.0320 c3        1 <1>     -0.011300
     14 S1          0.1910   -0.6580   -0.2340 ss        1 <1>     -0.340700
     15 O3          4.6180    0.9940   -1.0970 o         1 <1>     -0.743300
     16 H1          3.7170   -2.3040    0.5410 hn        1 <1>      0.448133
     17 H2          2.0530   -2.2440    0.5870 hn        1 <1>      0.448133
     18 H3          2.9490   -1.3230    1.6460 hn        1 <1>      0.448133
     19 H4         -2.1730   -1.7640   -0.4580 h4        1 <1>      0.046100
     20 H5         -3.1320    2.2190    0.5130 ha        1 <1>      0.162000
     21 H6         -5.4830    1.5930    0.4070 ha        1 <1>      0.155000
     22 H7         -6.0790   -0.6820   -0.1270 h4        1 <1>      0.032100
     23 H8          2.8800   -0.9960   -1.2630 hx        1 <1>      0.100700
     24 H9          1.7210    1.1080   -0.7390 h1        1 <1>      0.124700
     25 H10         1.7520    0.7030    0.9600 h1        1 <1>      0.124700
@<TRIPOS>BOND
     1    1    3 1   
     2    1   15 1   
     3    4    9 ar  
     4    4    5 ar  
     5    5    6 ar  
     6    6    7 ar  
     7    6   10 1   
     8    8    7 ar  
     9    9    8 ar  
    10   10   14 1   
    11   11   10 2   
    12   12    1 1   
    13   12    2 1   
    14   13   12 1   
    15   14   13 1   
    16    2   16 1   
    17    2   17 1   
    18    2   18 1   
    19    5   19 1   
    20    7   20 1   
    21    8   21 1   
    22    9   22 1   
    23   12   23 1   
    24   13   24 1   
    25   13   25 1   
@<TRIPOS>SUBSTRUCTURE
     1 <1>         1 TEMP              0 ****  ****    0 ROOT
