@<TRIPOS>MOLECULE
9BF
   27    28     1     0     0
SMALL
bcc


@<TRIPOS>ATOM
      1 C           4.5190   -0.7650   -1.1710 c3        1 LIG     -0.205100
      2 C1          3.5420   -0.2960   -0.1250 c         1 LIG      0.563100
      3 O           3.8910   -0.1970    1.0270 o         1 LIG     -0.534100
      4 C2          2.1270    0.0470   -0.5150 c3        1 LIG     -0.180400
      5 C3          1.3490    0.4910    0.7260 c3        1 LIG     -0.001200
      6 C4         -0.0650    0.8350    0.3360 cc        1 LIG     -0.141400
      7 C5         -1.1850   -0.1000    0.2070 ca        1 LIG     -0.089800
      8 C6         -1.3230   -1.4780    0.3800 ca        1 LIG     -0.085000
      9 C7         -2.5390   -2.0690    0.1770 ca        1 LIG     -0.158000
     10 C8         -3.6380   -1.3100   -0.2000 ca        1 LIG     -0.113000
     11 C9         -3.5240    0.0520   -0.3760 ca        1 LIG     -0.145000
     12 C10        -2.2960    0.6740   -0.1750 ca        1 LIG     -0.046200
     13 N          -1.8680    1.9800   -0.2670 na        1 LIG     -0.193400
     14 C11        -0.5390    2.0570    0.0460 cd        1 LIG     -0.101100
     15 H           5.4660   -0.9600   -0.7130 hc        1 LIG      0.062700
     16 H1          4.6330   -0.0070   -1.9180 hc        1 LIG      0.062700
     17 H2          4.1520   -1.6610   -1.6260 hc        1 LIG      0.062700
     18 H3          1.6560   -0.8140   -0.9420 hc        1 LIG      0.068700
     19 H4          2.1370    0.8410   -1.2320 hc        1 LIG      0.068700
     20 H5          1.8200    1.3510    1.1540 hc        1 LIG      0.059200
     21 H6          1.3380   -0.3030    1.4430 hc        1 LIG      0.059200
     22 H7         -0.5100   -2.0490    0.6600 ha        1 LIG      0.131000
     23 H8         -2.6400   -3.0880    0.3050 ha        1 LIG      0.129000
     24 H9         -4.5500   -1.7700   -0.3500 ha        1 LIG      0.129000
     25 H10        -4.3470    0.6090   -0.6560 ha        1 LIG      0.131000
     26 H11        -2.4340    2.7440   -0.5200 hn        1 LIG      0.298700
     27 H12         0.0170    2.9260    0.0580 h4        1 LIG      0.167000
@<TRIPOS>BOND
     1    2    1 1   
     2    3    2 2   
     3    4    2 1   
     4    4    5 1   
     5    5    6 1   
     6    6    7 1   
     7    7    8 ar  
     8    7   12 ar  
     9    8    9 ar  
    10    9   10 ar  
    11   11   10 ar  
    12   12   11 ar  
    13   13   12 1   
    14   14    6 2   
    15   14   13 1   
    16    1   15 1   
    17    1   16 1   
    18    1   17 1   
    19    4   18 1   
    20    4   19 1   
    21    5   20 1   
    22    5   21 1   
    23    8   22 1   
    24    9   23 1   
    25   10   24 1   
    26   11   25 1   
    27   13   26 1   
    28   14   27 1   
@<TRIPOS>SUBSTRUCTURE
     1 LIG         1 TEMP              0 ****  ****    0 ROOT
