@<TRIPOS>MOLECULE
PPQ
   23    22     1     0     0
SMALL
bcc


@<TRIPOS>ATOM
      1 N          -1.8670    0.3110   -1.8500 n4        1 LIG     -0.822600
      2 CA         -0.4260    0.5910   -1.7930 c3        1 LIG     -0.078500
      3 C           0.1550    0.0120   -0.5020 c3        1 LIG     -0.073400
      4 C1         -0.5370    0.6540    0.7010 c3        1 LIG     -0.433600
      5 P           0.1550   -0.0360    2.2400 p5        1 LIG      1.500100
      6 C2         -0.6690    0.7280    3.6740 c3        1 LIG     -0.476300
      7 O           1.6070    0.2460    2.2970 o         1 LIG     -0.863300
      8 O1         -0.0820   -1.6280    2.2690 oh        1 LIG     -0.835400
      9 C3          0.2550   -0.0400   -2.9790 c         1 LIG      0.939600
     10 O2         -0.1940   -1.0490   -3.4680 o         1 LIG     -0.756300
     11 OXT         1.3620    0.5180   -3.4930 o         1 LIG     -0.756300
     12 H1         -2.3280    0.7380   -1.0470 hn        1 LIG      0.447467
     13 H2         -2.0180   -0.6980   -1.8320 hn        1 LIG      0.447467
     14 H3         -2.2550    0.6980   -2.7100 hn        1 LIG      0.447467
     15 HA         -0.2670    1.6490   -1.8120 hx        1 LIG      0.085700
     16 H           1.2050    0.2160   -0.4600 hc        1 LIG      0.099700
     17 H4         -0.0040   -1.0460   -0.4820 hc        1 LIG      0.099700
     18 H5         -1.5870    0.4500    0.6590 hc        1 LIG      0.108700
     19 H6         -0.3780    1.7120    0.6810 hc        1 LIG      0.108700
     20 H7         -0.5110    1.7860    3.6540 hc        1 LIG      0.112367
     21 H8         -0.2610    0.3240    4.5770 hc        1 LIG      0.112367
     22 H9         -1.7180    0.5230    3.6330 hc        1 LIG      0.112367
     23 H10        -1.0330   -1.8140    2.2320 ho        1 LIG      0.472000
@<TRIPOS>BOND
     1    1    2 1   
     2    2    3 1   
     3    2    9 1   
     4    3    4 1   
     5    4    5 1   
     6    5    6 1   
     7    5    7 2   
     8    5    8 1   
     9    9   10 1   
    10    9   11 1   
    11    1   12 1   
    12    1   13 1   
    13    1   14 1   
    14    2   15 1   
    15    3   16 1   
    16    3   17 1   
    17    4   18 1   
    18    4   19 1   
    19    6   20 1   
    20    6   21 1   
    21    6   22 1   
    22    8   23 1   
@<TRIPOS>SUBSTRUCTURE
     1 LIG         1 TEMP              0 ****  ****    0 ROOT
