@<TRIPOS>MOLECULE
DXH
   57    61     1     0     0
SMALL
bcc


@<TRIPOS>ATOM
      1 C          -2.5880    4.8410    1.0850 c3        1 LIG     -0.064800
      2 C1         -1.5410    3.7870    0.8310 ca        1 LIG     -0.087300
      3 C2         -1.9060    2.5710    0.2650 ca        1 LIG      0.135600
      4 C3         -0.9450    1.6000    0.0300 ca        1 LIG     -0.063000
      5 C4          0.3870    1.8480    0.3630 ca        1 LIG     -0.141600
      6 C5          0.7420    3.0730    0.9320 ca        1 LIG     -0.115000
      7 C6         -0.2210    4.0350    1.1560 ca        1 LIG     -0.119000
      8 C7          1.4180    0.8180    0.1170 c         1 LIG      0.687700
      9 O           1.1230   -0.2110   -0.4610 o         1 LIG     -0.585100
     10 N           2.6840    1.0180    0.5330 n         1 LIG     -0.470100
     11 C8          3.6800    0.0900    0.2140 ca        1 LIG      0.072600
     12 C9          3.3760   -1.2650    0.1590 ca        1 LIG     -0.130000
     13 C10         4.3620   -2.1800   -0.1560 ca        1 LIG     -0.108000
     14 C11         5.6500   -1.7480   -0.4160 ca        1 LIG     -0.112000
     15 C12         5.9550   -0.4010   -0.3610 ca        1 LIG     -0.138300
     16 C13         4.9730    0.5200   -0.0520 ca        1 LIG     -0.144000
     17 C14         7.3600    0.0640   -0.6450 c3        1 LIG      0.686200
     18 F           8.1680   -1.0400   -0.9360 f         1 LIG     -0.236967
     19 F1          7.3510    0.9370   -1.7390 f         1 LIG     -0.236967
     20 F2          7.8670    0.7290    0.4770 f         1 LIG     -0.236967
     21 N1         -3.2420    2.3270   -0.0670 nh        1 LIG     -0.727300
     22 C15        -3.7120    1.0280   -0.1330 ca        1 LIG      0.749200
     23 N2         -2.9450    0.0100    0.2340 nb        1 LIG     -0.776000
     24 C16        -3.3890   -1.2420    0.1730 cp        1 LIG      0.773500
     25 N3         -4.6050   -1.5430   -0.2510 nb        1 LIG     -0.723000
     26 C17        -5.4440   -0.5860   -0.6390 ca        1 LIG      0.472800
     27 C18        -5.0180    0.7570   -0.5870 ca        1 LIG     -0.495500
     28 C19        -6.0910    1.5480   -1.0490 cc        1 LIG      0.376800
     29 N4         -7.0830    0.7620   -1.3550 nd        1 LIG     -0.504100
     30 N5         -6.7240   -0.5690   -1.1120 na        1 LIG     -0.003800
     31 C20        -7.5720   -1.7430   -1.3340 c3        1 LIG      0.047600
     32 C21        -2.4880   -2.3410    0.5950 cp        1 LIG     -0.269800
     33 C22        -2.8730   -3.6710    0.4430 ca        1 LIG      0.437200
     34 N6         -2.0730   -4.6480    0.8170 nb        1 LIG     -0.678000
     35 C23        -0.8880   -4.4130    1.3460 ca        1 LIG      0.408200
     36 C24        -0.4330   -3.1210    1.5310 ca        1 LIG     -0.258300
     37 C25        -1.2350   -2.0590    1.1480 ca        1 LIG     -0.042000
     38 H          -2.1280    5.7030    1.5210 hc        1 LIG      0.051033
     39 H1         -3.3280    4.4550    1.7540 hc        1 LIG      0.051033
     40 H2         -3.0510    5.1140    0.1600 hc        1 LIG      0.051033
     41 H3         -1.2140    0.6970   -0.3900 ha        1 LIG      0.173000
     42 H4          1.7250    3.2590    1.1850 ha        1 LIG      0.140000
     43 H5          0.0450    4.9430    1.5680 ha        1 LIG      0.141000
     44 H6          2.9080    1.8180    1.0620 hn        1 LIG      0.323500
     45 H7          2.4150   -1.5870    0.3530 ha        1 LIG      0.179000
     46 H8          4.1370   -3.1860   -0.1970 ha        1 LIG      0.145000
     47 H9          6.3850   -2.4330   -0.6520 ha        1 LIG      0.153000
     48 H10         5.2000    1.5260   -0.0190 ha        1 LIG      0.147000
     49 H11        -3.8480    3.0800   -0.2540 hn        1 LIG      0.438800
     50 H12        -6.0900    2.5770   -1.1310 h4        1 LIG      0.053800
     51 H13        -8.5240   -1.4300   -1.7090 h1        1 LIG      0.064700
     52 H14        -7.7070   -2.2650   -0.4100 h1        1 LIG      0.064700
     53 H15        -7.1040   -2.3910   -2.0450 h1        1 LIG      0.064700
     54 H16        -3.7940   -3.8930    0.0330 h4        1 LIG      0.038100
     55 H17        -0.2910   -5.2070    1.6260 h4        1 LIG      0.022100
     56 H18         0.4940   -2.9500    1.9500 ha        1 LIG      0.150000
     57 H19        -0.9160   -1.0850    1.2680 ha        1 LIG      0.170000
@<TRIPOS>BOND
     1    1    2 1   
     2    2    7 ar  
     3    3    2 ar  
     4    3    4 ar  
     5    4    5 ar  
     6    5    6 ar  
     7    5    8 1   
     8    7    6 ar  
     9    8   10 1   
    10    9    8 2   
    11   10   11 1   
    12   11   12 ar  
    13   12   13 ar  
    14   14   13 ar  
    15   15   14 ar  
    16   16   11 ar  
    17   16   15 ar  
    18   17   18 1   
    19   17   19 1   
    20   17   15 1   
    21   20   17 1   
    22   21    3 1   
    23   22   21 1   
    24   22   23 ar  
    25   23   24 ar  
    26   24   32 1   
    27   25   24 ar  
    28   26   25 ar  
    29   27   26 ar  
    30   27   22 ar  
    31   28   27 1   
    32   29   28 2   
    33   29   30 1   
    34   30   26 1   
    35   31   30 1   
    36   32   37 ar  
    37   32   33 ar  
    38   33   34 ar  
    39   34   35 ar  
    40   36   35 ar  
    41   37   36 ar  
    42    1   38 1   
    43    1   39 1   
    44    1   40 1   
    45    4   41 1   
    46    6   42 1   
    47    7   43 1   
    48   10   44 1   
    49   12   45 1   
    50   13   46 1   
    51   14   47 1   
    52   16   48 1   
    53   21   49 1   
    54   28   50 1   
    55   31   51 1   
    56   31   52 1   
    57   31   53 1   
    58   33   54 1   
    59   35   55 1   
    60   36   56 1   
    61   37   57 1   
@<TRIPOS>SUBSTRUCTURE
     1 LIG         1 TEMP              0 ****  ****    0 ROOT
