@<TRIPOS>MOLECULE
4MU
   21    22     1     0     0
SMALL
bcc


@<TRIPOS>ATOM
      1 C          -1.1010   -1.5770   -0.0060 C.a       1 LIG     -0.035000
      2 C1         -2.3610   -1.0520   -0.0130 C.a       1 LIG     -0.240000
      3 C2         -2.5500    0.3290   -0.0180 C.a       1 LIG      0.171100
      4 C3          2.1480    1.0070    0.0030 C.        1 LIG      0.723800
      5 C4          2.4060   -0.3790    0.0060 C.c       1 LIG     -0.271200
      6 C5          1.3710   -1.2590    0.0040 C.d       1 LIG      0.055600
      7 O           3.0850    1.7850    0.0040 O.3       1 LIG     -0.564500
      8 O1          0.8960    1.4910   -0.0040 O.2       1 LIG     -0.324200
      9 C6          1.6190   -2.7450    0.0100 C.3       1 LIG     -0.073900
     10 C7          0.0080   -0.7240   -0.0030 C.a       1 LIG     -0.185800
     11 C8         -0.1770    0.6710   -0.0070 C.a       1 LIG      0.188100
     12 C9         -1.4640    1.1880   -0.0150 C.a       1 LIG     -0.185000
     13 O2         -3.8090    0.8360   -0.0250 O.h       1 LIG     -0.486100
     14 H          -0.9670   -2.6000   -0.0030 H         1 LIG      0.141000
     15 H1         -3.1790   -1.6810   -0.0150 H         1 LIG      0.141000
     16 H2          3.3790   -0.7240    0.0100 H         1 LIG      0.169000
     17 H3          2.6730   -2.9310    0.0150 H         1 LIG      0.058367
     18 H4          1.1830   -3.1830   -0.8640 H         1 LIG      0.058367
     19 H5          1.1770   -3.1770    0.8830 H         1 LIG      0.058367
     20 H6         -1.6120    2.2090   -0.0190 H         1 LIG      0.178000
     21 H7         -4.5470    0.2580   -0.0270 H         1 LIG      0.425000
@<TRIPOS>BOND
     1    1    2 ar  
     2    1   10 ar  
     3    2    3 ar  
     4    3   12 ar  
     5    3   13 1   
     6    4    5 1   
     7    4    7 2   
     8    4    8 1   
     9    5    6 2   
    10    6    9 1   
    11    6   10 1   
    12    8   11 1   
    13   10   11 ar  
    14   11   12 ar  
    15    1   14 1   
    16    2   15 1   
    17    5   16 1   
    18    9   17 1   
    19    9   18 1   
    20    9   19 1   
    21   12   20 1   
    22   13   21 1   
@<TRIPOS>SUBSTRUCTURE
     1 LIG         1 TEMP              0 ****  ****    0 ROOT
