@<TRIPOS>MOLECULE
BHD
   16    15     1     0     0
SMALL
bcc


@<TRIPOS>ATOM
      1 N          -0.1910   -0.4050    1.6530 n4        1 LIG     -0.846600
      2 CA         -0.4770    0.4360    0.4820 c3        1 LIG     -0.045500
      3 C           0.4790    0.0680   -0.6550 c3        1 LIG      0.018100
      4 O           0.2210   -1.2720   -1.0790 oh        1 LIG     -0.606800
      5 C1          1.9020    0.1760   -0.1700 c         1 LIG      0.873600
      6 O1          2.5930   -0.8120   -0.1010 o         1 LIG     -0.825800
      7 O2          2.4010    1.3700    0.1850 o         1 LIG     -0.825800
      8 C2         -1.8980    0.2100    0.0360 c         1 LIG      0.930600
      9 O3         -2.4840   -0.7930    0.3700 o         1 LIG     -0.804800
     10 OXT        -2.5140    1.1230   -0.7320 o         1 LIG     -0.804800
     11 H1          0.7710   -0.2520    1.9550 hn        1 LIG      0.446800
     12 H2         -0.3180   -1.3870    1.4060 hn        1 LIG      0.446800
     13 H3         -0.8280   -0.1600    2.4110 hn        1 LIG      0.446800
     14 HA         -0.3440    1.4660    0.7410 hx        1 LIG      0.083700
     15 H           0.3300    0.7370   -1.4760 h1        1 LIG      0.109700
     16 H4          0.3560   -1.8790   -0.3340 ho        1 LIG      0.403000
@<TRIPOS>BOND
     1    1    2 1   
     2    2    3 1   
     3    2    8 1   
     4    3    4 1   
     5    3    5 1   
     6    5    6 1   
     7    5    7 1   
     8    8    9 1   
     9    8   10 1   
    10    1   11 1   
    11    1   12 1   
    12    1   13 1   
    13    2   14 1   
    14    3   15 1   
    15    4   16 1   
@<TRIPOS>SUBSTRUCTURE
     1 LIG         1 TEMP              0 ****  ****    0 ROOT
