@<TRIPOS>MOLECULE
MLG
   33    33     1     0     0
SMALL
bcc


@<TRIPOS>ATOM
      1 C          -1.0960    0.0140   -1.5200 C.a       1 LIG     -0.126000
      2 C1         -1.7060   -0.0260   -2.7580 C.a       1 LIG     -0.106000
      3 C2         -0.9380   -0.0320   -3.9090 C.a       1 LIG      0.025400
      4 Cl         -1.7080   -0.0840   -5.4650 C.l       1 LIG     -0.049400
      5 C3          0.4410    0.0030   -3.8230 C.a       1 LIG     -0.111000
      6 C4          1.0560    0.0500   -2.5850 C.a       1 LIG      0.013400
      7 Cl1         2.7880    0.0950   -2.4760 C.l       1 LIG     -0.079400
      8 C5          0.2870    0.0500   -1.4300 C.a       1 LIG      0.064100
      9 O           0.8890    0.0900   -0.2110 O.2       1 LIG     -0.308900
     10 C6          0.4590    0.1300    2.1660 C.3       1 LIG     -0.151400
     11 C7         -0.1530    0.0860    0.7640 C.3       1 LIG      0.135400
     12 C8         -0.6570    0.1260    3.2110 C.3       1 LIG      0.111800
     13 N          -0.0690    0.1680    4.5560 N.4       1 LIG     -0.687400
     14 C9          0.6500   -1.0970    4.7430 C.3       1 LIG      0.082100
     15 C10        -1.1880    0.1610    5.5070 C.3       1 LIG      0.227900
     16 C11        -0.6650    0.2030    6.8820 C.1       1 LIG     -0.283100
     17 C12        -0.2470    0.2370    7.9790 C.1       1 LIG      0.034500
     18 H          -1.6690    0.0170   -0.6620 H         1 LIG      0.156000
     19 H1         -2.7360   -0.0510   -2.8250 H         1 LIG      0.166000
     20 H2          1.0120   -0.0060   -4.6830 H         1 LIG      0.173000
     21 H3          1.0430    1.0200    2.2720 H         1 LIG      0.082200
     22 H4          1.0840   -0.7270    2.3090 H         1 LIG      0.082200
     23 H5         -0.7370   -0.8040    0.6580 H         1 LIG      0.068200
     24 H6         -0.7780    0.9430    0.6210 H         1 LIG      0.068200
     25 H7         -1.2420   -0.7640    3.1050 H         1 LIG      0.102200
     26 H8         -1.2820    0.9830    3.0680 H         1 LIG      0.102200
     27 H9          0.5380    0.9770    4.6830 H         1 LIG      0.454800
     28 H10        -0.0250   -1.9150    4.6000 H         1 LIG      0.106367
     29 H11         1.0530   -1.1350    5.7340 H         1 LIG      0.106367
     30 H12         1.4460   -1.1630    4.0320 H         1 LIG      0.106367
     31 H13        -1.7650   -0.7300    5.3720 H         1 LIG      0.116700
     32 H14        -1.8070    1.0170    5.3350 H         1 LIG      0.116700
     33 H15         0.1070    0.2660    8.9080 H         1 LIG      0.201500
@<TRIPOS>BOND
     1    1    2 ar  
     2    1    8 ar  
     3    2    3 ar  
     4    3    4 1   
     5    3    5 ar  
     6    5    6 ar  
     7    6    7 1   
     8    6    8 ar  
     9    8    9 1   
    10    9   11 1   
    11   10   11 1   
    12   10   12 1   
    13   12   13 1   
    14   13   14 1   
    15   13   15 1   
    16   15   16 1   
    17   16   17 3   
    18    1   18 1   
    19    2   19 1   
    20    5   20 1   
    21   10   21 1   
    22   10   22 1   
    23   11   23 1   
    24   11   24 1   
    25   12   25 1   
    26   12   26 1   
    27   13   27 1   
    28   14   28 1   
    29   14   29 1   
    30   14   30 1   
    31   15   31 1   
    32   15   32 1   
    33   17   33 1   
@<TRIPOS>SUBSTRUCTURE
     1 LIG         1 TEMP              0 ****  ****    0 ROOT
