@<TRIPOS>MOLECULE
PNU
   31    33     1     0     0
SMALL
bcc


@<TRIPOS>ATOM
      1 C           0.8160   -0.0300    1.9640 ca        1 LIG      0.779300
      2 N           1.8400    0.0100    2.8040 nb        1 LIG     -0.756000
      3 C1          1.6390    0.0010    4.1180 ca        1 LIG      0.702200
      4 C2          0.3310   -0.0500    4.6040 ca        1 LIG     -0.441600
      5 C3         -0.7080   -0.0910    3.6940 ca        1 LIG      0.570300
      6 N1         -0.4360   -0.0750    2.3960 nb        1 LIG     -0.756000
      7 C4         -0.5890   -0.0820   -4.6320 ca        1 LIG     -0.065200
      8 C5         -1.7530   -0.1290   -3.8800 ca        1 LIG      0.423200
      9 N2         -1.6950   -0.1320   -2.5630 nb        1 LIG     -0.639000
     10 C6         -0.5530   -0.0820   -1.9000 ca        1 LIG      0.387600
     11 C7          0.6450   -0.0330   -2.5570 ca        1 LIG     -0.187300
     12 C8          0.6440   -0.0330   -3.9530 ca        1 LIG     -0.071800
     13 C9          1.6660    0.0090   -4.9990 cc        1 LIG     -0.180200
     14 O          -0.3180   -0.0700   -5.9500 os        1 LIG     -0.188200
     15 C10         1.0070   -0.0160   -6.1670 cd        1 LIG     -0.000900
     16 C11        -0.5710   -0.0840   -0.3930 c3        1 LIG     -0.044900
     17 S           1.1260   -0.0160    0.2300 ss        1 LIG     -0.216400
     18 N3          2.7120    0.0440    4.9930 nh        1 LIG     -0.948500
     19 Cl         -2.3540   -0.1570    4.2440 cl        1 LIG     -0.145000
     20 C12        -1.3470    1.1340    0.1080 c3        1 LIG     -0.089100
     21 H           0.1450   -0.0570    5.6190 ha        1 LIG      0.162000
     22 H1         -2.6690   -0.1620   -4.3540 h4        1 LIG      0.041100
     23 H2          1.5320    0.0030   -2.0310 ha        1 LIG      0.162000
     24 H3          2.6880    0.0500   -4.8650 ha        1 LIG      0.172000
     25 H4          1.4530    0.0030   -7.0980 h4        1 LIG      0.195000
     26 H5         -1.0440   -0.9780   -0.0430 h1        1 LIG      0.122700
     27 H6          3.6310    0.0800    4.6430 hn        1 LIG      0.430300
     28 H7          2.5550    0.0390    5.9650 hn        1 LIG      0.430300
     29 H8         -0.8740    2.0270   -0.2430 hc        1 LIG      0.051033
     30 H9         -1.3600    1.1330    1.1780 hc        1 LIG      0.051033
     31 H10        -2.3510    1.0940   -0.2610 hc        1 LIG      0.051033
@<TRIPOS>BOND
     1    1    2 ar  
     2    1    6 ar  
     3    1   17 1   
     4    2    3 ar  
     5    3    4 ar  
     6    3   18 1   
     7    4    5 ar  
     8    5    6 ar  
     9    5   19 1   
    10    7    8 ar  
    11    7   12 ar  
    12    7   14 1   
    13    8    9 ar  
    14    9   10 ar  
    15   10   11 ar  
    16   10   16 1   
    17   11   12 ar  
    18   12   13 1   
    19   13   15 2   
    20   14   15 1   
    21   16   17 1   
    22   16   20 1   
    23    4   21 1   
    24    8   22 1   
    25   11   23 1   
    26   13   24 1   
    27   15   25 1   
    28   16   26 1   
    29   18   27 1   
    30   18   28 1   
    31   20   29 1   
    32   20   30 1   
    33   20   31 1   
@<TRIPOS>SUBSTRUCTURE
     1 LIG         1 TEMP              0 ****  ****    0 ROOT
