@<TRIPOS>MOLECULE
PRP
   30    30     1     0     0
SMALL
bcc


@<TRIPOS>ATOM
      1 C           1.4140   -0.7540    0.2180 c3        1 LIG      0.390900
      2 C1          2.8200   -0.6090   -0.4040 c3        1 LIG      0.055100
      3 C2          2.5620    0.0950   -1.7540 c3        1 LIG      0.111100
      4 C3          1.0300    0.2910   -1.7920 c3        1 LIG      0.107100
      5 C4          0.4940    0.0870   -3.2100 c3        1 LIG      0.196400
      6 O           1.1470    0.3340    1.1040 os        1 LIG     -0.578200
      7 O1          3.6580    0.1950    0.4280 oh        1 LIG     -0.690800
      8 O2          3.2300    1.3570   -1.7960 oh        1 LIG     -0.655800
      9 O3          0.5080   -0.7250   -0.9050 os        1 LIG     -0.486600
     10 O4         -0.9290    0.2030   -3.2020 os        1 LIG     -0.588200
     11 P          -1.4230   -0.0210   -4.7180 p5        1 LIG      1.329900
     12 O5         -1.0070   -1.3640   -5.1790 o         1 LIG     -0.959167
     13 O6         -3.0270    0.0960   -4.7840 o         1 LIG     -0.959167
     14 O7         -0.7640    1.0990   -5.6680 o         1 LIG     -0.959167
     15 P1          0.1570   -0.2250    2.2440 p5        1 LIG      1.611800
     16 O8         -1.0920   -0.7110    1.6170 o         1 LIG     -0.926000
     17 O9          0.8710   -1.4370    3.0270 o         1 LIG     -0.926000
     18 O10        -0.1860    0.9550    3.2830 os        1 LIG     -0.722800
     19 P2         -1.1750    0.3290    4.3890 p5        1 LIG      1.381900
     20 O11        -0.4980   -0.7930    5.0750 o         1 LIG     -0.935500
     21 O12        -1.5620    1.4610    5.4650 o         1 LIG     -0.935500
     22 O13        -2.5120   -0.2080    3.6710 o         1 LIG     -0.935500
     23 H           1.3160   -1.6510    0.7920 h2        1 LIG      0.061700
     24 H1          3.3190   -1.5490   -0.5170 h1        1 LIG      0.002700
     25 H2          2.9250   -0.4690   -2.5880 h1        1 LIG      0.053700
     26 H3          0.7430    1.2780   -1.4960 h1        1 LIG      0.031700
     27 H4          0.7710   -0.8860   -3.5590 h1        1 LIG     -0.003800
     28 H5          0.9090    0.8300   -3.8580 h1        1 LIG     -0.003800
     29 H6          3.2450    1.0630    0.5600 ho        1 LIG      0.494000
     30 H7          2.9310    1.9060   -1.0540 ho        1 LIG      0.437000
@<TRIPOS>BOND
     1    1    2 1   
     2    1    6 1   
     3    1    9 1   
     4    2    3 1   
     5    2    7 1   
     6    3    4 1   
     7    3    8 1   
     8    4    5 1   
     9    4    9 1   
    10    5   10 1   
    11    6   15 1   
    12   10   11 1   
    13   11   12 1   
    14   11   13 1   
    15   11   14 1   
    16   15   16 1   
    17   15   17 1   
    18   15   18 1   
    19   18   19 1   
    20   19   20 1   
    21   19   21 1   
    22   19   22 1   
    23    1   23 1   
    24    2   24 1   
    25    3   25 1   
    26    4   26 1   
    27    5   27 1   
    28    5   28 1   
    29    7   29 1   
    30    8   30 1   
@<TRIPOS>SUBSTRUCTURE
     1 LIG         1 TEMP              0 ****  ****    0 ROOT
