@<TRIPOS>MOLECULE
TDO
   57    59     1     0     0
SMALL
bcc


@<TRIPOS>ATOM
      1 O          -2.8010    0.0470    1.0910 o         1 LIG     -0.836500
      2 P          -2.8770   -0.5860   -0.2450 p5        1 LIG      1.511800
      3 O1         -3.2710   -2.1380   -0.0810 o         1 LIG     -0.836500
      4 O2         -3.9940    0.1620   -1.1300 os        1 LIG     -0.541200
      5 C          -5.2090    0.1270   -0.3780 c3        1 LIG      0.365900
      6 C1         -6.3980    0.0870   -1.3410 c3        1 LIG      0.071100
      7 O3         -6.4520    1.3050   -2.0870 oh        1 LIG     -0.638800
      8 C2         -7.6880   -0.0770   -0.5230 c3        1 LIG      0.043100
      9 O4         -8.8240    0.1540   -1.3570 oh        1 LIG     -0.595800
     10 C3         -7.6510    0.9440    0.5980 c         1 LIG      0.523100
     11 O5         -8.6180    1.6180    0.8610 o         1 LIG     -0.555100
     12 C4         -6.3590    1.0910    1.3710 c3        1 LIG      0.058100
     13 O6         -5.2850    1.2860    0.4490 os        1 LIG     -0.417600
     14 C5         -6.4560    2.2980    2.3070 c3        1 LIG     -0.079100
     15 O7         -1.4470   -0.4700   -0.9760 os        1 LIG     -0.700800
     16 P1         -0.3320   -0.8680    0.1160 p5        1 LIG      1.534800
     17 O8         -0.7650   -2.0820    0.8430 o         1 LIG     -0.868500
     18 O9         -0.1470    0.3450    1.1590 o         1 LIG     -0.868500
     19 O10         1.0670   -1.1570   -0.6260 os        1 LIG     -0.565200
     20 C6          1.9780   -1.6160    0.3750 c3        1 LIG      0.217400
     21 C7          3.3350   -1.9110   -0.2670 c3        1 LIG      0.055100
     22 O11         3.9670   -0.6880   -0.7030 os        1 LIG     -0.430600
     23 C8          4.3240   -2.4790    0.7820 c3        1 LIG      0.151100
     24 O12         4.1890   -3.8960    0.9040 oh        1 LIG     -0.636800
     25 C9          5.6970   -2.1050    0.1680 c3        1 LIG     -0.130400
     26 C10         5.3750   -0.9580   -0.8100 c3        1 LIG      0.300500
     27 N           6.1400    0.2380   -0.4500 n         1 LIG     -0.374000
     28 C11         5.9070    0.8490    0.7260 c         1 LIG      0.804500
     29 O13         5.0660    0.3990    1.4790 o         1 LIG     -0.674500
     30 N1          6.5990    1.9470    1.0840 n         1 LIG     -0.593500
     31 C12         7.5350    2.4590    0.2600 c         1 LIG      0.721700
     32 O14         8.1580    3.4550    0.5810 o         1 LIG     -0.657500
     33 C13         7.7870    1.8290   -0.9820 cc        1 LIG     -0.293400
     34 C14         8.8280    2.3810   -1.9220 c3        1 LIG     -0.023900
     35 C15         7.0820    0.7260   -1.3140 cd        1 LIG      0.075600
     36 H          -5.2300   -0.7460    0.2410 h2        1 LIG      0.078700
     37 H1         -6.2910   -0.7330   -2.0210 h1        1 LIG      0.086700
     38 H2         -6.5490    2.0530   -1.4780 ho        1 LIG      0.453000
     39 H3         -7.7600   -1.0680   -0.1260 h1        1 LIG      0.085700
     40 H4         -8.7770    1.0490   -1.7270 ho        1 LIG      0.420000
     41 H5         -6.1820    0.2090    1.9510 h1        1 LIG      0.047700
     42 H6         -6.6330    3.1830    1.7310 hc        1 LIG      0.039700
     43 H7         -5.5400    2.4030    2.8500 hc        1 LIG      0.039700
     44 H8         -7.2630    2.1530    2.9940 hc        1 LIG      0.039700
     45 H9          1.5940   -2.5080    0.8240 h1        1 LIG      0.005200
     46 H10         2.0950   -0.8610    1.1240 h1        1 LIG      0.005200
     47 H11         3.1440   -2.5910   -1.0700 h1        1 LIG      0.096700
     48 H12         4.1710   -2.0950    1.7690 h1        1 LIG      0.086700
     49 H13         4.3180   -4.3090    0.0360 ho        1 LIG      0.491000
     50 H14         6.1200   -2.9390   -0.3520 hc        1 LIG      0.064700
     51 H15         6.4140   -1.8210    0.9100 hc        1 LIG      0.064700
     52 H16         5.6350   -1.2310   -1.8110 h2        1 LIG      0.098700
     53 H17         6.4210    2.3780    1.9510 hn        1 LIG      0.334500
     54 H18         9.2760    3.2500   -1.4880 hc        1 LIG      0.047367
     55 H19         8.3660    2.6440   -2.8510 hc        1 LIG      0.047367
     56 H20         9.5810    1.6410   -2.0950 hc        1 LIG      0.047367
     57 H21         7.2530    0.2530   -2.2150 h4        1 LIG      0.204000
@<TRIPOS>BOND
     1    1    2 1   
     2    2    3 1   
     3    2    4 1   
     4    2   15 1   
     5    4    5 1   
     6    5    6 1   
     7    5   13 1   
     8    6    7 1   
     9    6    8 1   
    10    8    9 1   
    11    8   10 1   
    12   10   11 2   
    13   10   12 1   
    14   12   13 1   
    15   12   14 1   
    16   15   16 1   
    17   16   17 1   
    18   16   18 1   
    19   16   19 1   
    20   19   20 1   
    21   20   21 1   
    22   21   22 1   
    23   21   23 1   
    24   22   26 1   
    25   23   24 1   
    26   23   25 1   
    27   25   26 1   
    28   26   27 1   
    29   27   28 1   
    30   27   35 1   
    31   28   29 2   
    32   28   30 1   
    33   30   31 1   
    34   31   32 2   
    35   31   33 1   
    36   33   34 1   
    37   33   35 2   
    38    5   36 1   
    39    6   37 1   
    40    7   38 1   
    41    8   39 1   
    42    9   40 1   
    43   12   41 1   
    44   14   42 1   
    45   14   43 1   
    46   14   44 1   
    47   20   45 1   
    48   20   46 1   
    49   21   47 1   
    50   23   48 1   
    51   24   49 1   
    52   25   50 1   
    53   25   51 1   
    54   26   52 1   
    55   30   53 1   
    56   34   54 1   
    57   34   55 1   
    58   34   56 1   
    59   35   57 1   
@<TRIPOS>SUBSTRUCTURE
     1 LIG         1 TEMP              0 ****  ****    0 ROOT
