@<TRIPOS>MOLECULE
5RW
   30    32     1     0     0
SMALL
bcc


@<TRIPOS>ATOM
      1 C          -3.8350   -0.3710    1.1960 C.a       1 LIG     -0.083000
      2 C1         -3.8350   -0.3580   -1.1990 C.a       1 LIG     -0.083000
      3 C2         -5.2120   -0.2450    1.1980 C.a       1 LIG     -0.169000
      4 C3         -5.2130   -0.2430   -1.2000 C.a       1 LIG     -0.169000
      5 C4         -3.1480   -0.4280   -0.0020 C.a       1 LIG     -0.111300
      6 C5         -5.9020   -0.1810   -0.0010 C.a       1 LIG      0.137900
      7 C6          3.0200    0.7500   -0.0030 C.c       1 LIG     -0.348200
      8 C7          2.6160   -0.5900   -0.0020 C.d       1 LIG      0.602300
      9 C8          0.8140    0.6300    0.0040 C.c       1 LIG      0.517800
     10 C9          4.3870    1.0500   -0.0020 C.        1 LIG      0.748100
     11 C10         4.8320   -1.2620   -0.0000 C.c       1 LIG      0.648800
     12 C11        -1.6470   -0.5660   -0.0030 C.3       1 LIG      0.040000
     13 N           1.8560    1.5080    0.0020 N.a       1 LIG     -0.257900
     14 N1          3.5530   -1.5590   -0.0010 N.d       1 LIG     -0.698700
     15 N2          1.2740   -0.6020   -0.0020 N.d       1 LIG     -0.672000
     16 N3          5.2720    0.0280   -0.0000 N.        1 LIG     -0.493400
     17 N4          5.7530   -2.2800    0.0010 N.h       1 LIG     -0.880800
     18 O           4.7720    2.2090   -0.0020 O.3       1 LIG     -0.635500
     19 F          -7.2480   -0.0690    0.0000 F.        1 LIG     -0.136900
     20 S          -0.8900    1.0780    0.0070 S.3       1 LIG     -0.234400
     21 H          -3.3200   -0.4220    2.0890 H         1 LIG      0.145000
     22 H1         -3.3200   -0.3920   -2.0920 H         1 LIG      0.145000
     23 H2         -5.7250   -0.1990    2.0920 H         1 LIG      0.153000
     24 H3         -5.7270   -0.2030   -2.0940 H         1 LIG      0.153000
     25 H4         -1.3380   -1.0960   -0.8800 H         1 LIG      0.094700
     26 H5         -1.3380   -1.1060    0.8670 H         1 LIG      0.094700
     27 H6          1.7960    2.4910    0.0040 H         1 LIG      0.328700
     28 H7          6.2380    0.2160    0.0020 H         1 LIG      0.338500
     29 H8          5.4510   -3.2170    0.0010 H         1 LIG      0.412800
     30 H9          6.7150   -2.0730    0.0020 H         1 LIG      0.412800
@<TRIPOS>BOND
     1    1    3 ar  
     2    2    4 ar  
     3    2    5 ar  
     4    4    6 ar  
     5    5    1 ar  
     6    6   19 1   
     7    6    3 ar  
     8    7    8 ar  
     9    8   14 1   
    10    9   15 ar  
    11   10    7 1   
    12   10   16 1   
    13   11   14 2   
    14   11   17 1   
    15   12    5 1   
    16   12   20 1   
    17   13    9 ar  
    18   13    7 ar  
    19   15    8 ar  
    20   16   11 1   
    21   18   10 2   
    22   20    9 1   
    23    1   21 1   
    24    2   22 1   
    25    3   23 1   
    26    4   24 1   
    27   12   25 1   
    28   12   26 1   
    29   13   27 1   
    30   16   28 1   
    31   17   29 1   
    32   17   30 1   
@<TRIPOS>SUBSTRUCTURE
     1 LIG         1 TEMP              0 ****  ****    0 ROOT
