@<TRIPOS>MOLECULE
EEE
   14    13     1     0     0
SMALL
bcc


@<TRIPOS>ATOM
      1 C          -0.9910    0.0340   -0.0010 c         1 LIG      0.631100
      2 C1         -2.1990   -0.8670    0.0000 c3        1 LIG     -0.150100
      3 O          -1.1330    1.2340    0.0010 o         1 LIG     -0.544000
      4 O1          0.2420   -0.4960    0.0000 os        1 LIG     -0.446900
      5 C2          1.3590    0.4320   -0.0010 c3        1 LIG      0.138400
      6 C3          2.6730   -0.3520    0.0010 c3        1 LIG     -0.100100
      7 H          -3.0880   -0.2720   -0.0010 hc        1 LIG      0.075700
      8 H1         -2.1830   -1.4830    0.8750 hc        1 LIG      0.075700
      9 H2         -2.1830   -1.4860   -0.8730 hc        1 LIG      0.075700
     10 H3          1.3110    1.0490    0.8720 h1        1 LIG      0.051700
     11 H4          1.3120    1.0470   -0.8760 h1        1 LIG      0.051700
     12 H5          2.7200   -0.9670    0.8760 hc        1 LIG      0.047367
     13 H6          3.4960    0.3320    0.0000 hc        1 LIG      0.047367
     14 H7          2.7210   -0.9690   -0.8720 hc        1 LIG      0.047367
@<TRIPOS>BOND
     1    1    2 1   
     2    1    3 2   
     3    1    4 1   
     4    4    5 1   
     5    5    6 1   
     6    2    7 1   
     7    2    8 1   
     8    2    9 1   
     9    5   10 1   
    10    5   11 1   
    11    6   12 1   
    12    6   13 1   
    13    6   14 1   
@<TRIPOS>SUBSTRUCTURE
     1 LIG         1 TEMP              0 ****  ****    0 ROOT
