@<TRIPOS>MOLECULE
3GQ
   18    18     1     0     0
SMALL
bcc


@<TRIPOS>ATOM
      1 O           0.0010   -2.1880    1.1070 o         1 LIG     -0.863300
      2 C           0.0000   -1.4920   -0.0450 c         1 LIG      0.935200
      3 O1         -0.0010   -2.0780   -1.1090 o         1 LIG     -0.863300
      4 C1         -0.0000   -0.0120   -0.0160 ca        1 LIG     -0.048600
      5 C2         -1.2130    0.6950   -0.0010 ca        1 LIG     -0.083600
      6 C3         -2.4980   -0.0360   -0.0140 c         1 LIG      0.930200
      7 O2         -2.5070   -1.2500   -0.0380 o         1 LIG     -0.879300
      8 O3         -3.6600    0.6460    0.0000 o         1 LIG     -0.879300
      9 C4         -1.2000    2.0900    0.0270 ca        1 LIG     -0.169000
     10 C5         -0.0000    2.7750    0.0390 ca        1 LIG     -0.212000
     11 C6          1.2000    2.0900    0.0240 ca        1 LIG     -0.169000
     12 C7          1.2130    0.6950    0.0030 ca        1 LIG     -0.083600
     13 C8          2.4980   -0.0360   -0.0120 c         1 LIG      0.930200
     14 O4          3.6600    0.6460   -0.0060 o         1 LIG     -0.879300
     15 O5          2.5070   -1.2500   -0.0310 o         1 LIG     -0.879300
     16 H          -2.0900    2.6120    0.0390 ha        1 LIG      0.082000
     17 H1          0.0000    3.8070    0.0590 ha        1 LIG      0.050000
     18 H2          2.0900    2.6120    0.0280 ha        1 LIG      0.082000
@<TRIPOS>BOND
     1    2    1 1   
     2    3    2 1   
     3    4    2 1   
     4    4    5 ar  
     5    5    6 1   
     6    6    8 1   
     7    7    6 1   
     8    9    5 ar  
     9   10    9 ar  
    10   11   12 ar  
    11   11   10 ar  
    12   12    4 ar  
    13   13   12 1   
    14   13   14 1   
    15   15   13 1   
    16    9   16 1   
    17   10   17 1   
    18   11   18 1   
@<TRIPOS>SUBSTRUCTURE
     1 LIG         1 TEMP              0 ****  ****    0 ROOT
