@<TRIPOS>MOLECULE
BMF
   48    50     1     0     0
SMALL
bcc


@<TRIPOS>ATOM
      1 C          -1.1190   -1.1240   -0.0450 C.a       1 LIG     -0.126500
      2 N           0.0770    0.9790    0.0260 N.c       1 LIG     -0.477800
      3 C1          2.4970   -0.2400   -0.5350 C.c       1 LIG      0.175600
      4 C2          4.7480   -0.7410    0.0310 C.        1 LIG      0.750100
      5 C3          8.2970   -1.7390    0.1340 C.3       1 LIG     -0.104100
      6 C4          1.3440   -0.9690   -0.4370 C.d       1 LIG     -0.297300
      7 C5          0.4790    4.1490    0.3670 C.3       1 LIG     -0.098400
      8 C6         -2.2390   -3.2490   -0.1310 C.a       1 LIG     -0.108000
      9 C7         -4.7020   -3.4460    0.2560 C.3       1 LIG     -0.057800
     10 C8         -3.4410   -2.6280    0.1500 C.a       1 LIG     -0.096300
     11 C9         -3.4880   -1.2530    0.3460 C.a       1 LIG      0.157600
     12 N1         -4.7030   -0.6300    0.6410 N.h       1 LIG     -0.781500
     13 S          -5.0250    0.8810    0.0460 S.6       1 LIG      1.469900
     14 C10        -4.9450    0.6840   -1.7560 C.3       1 LIG     -0.372300
     15 O          -6.3590    1.1440    0.4600 O.3       1 LIG     -0.648300
     16 O1         -3.9440    1.6780    0.5090 O.3       1 LIG     -0.648300
     17 C11        -2.3290   -0.4980    0.2440 C.a       1 LIG     -0.147000
     18 C12         0.1260   -0.3240   -0.1500 C.d       1 LIG      0.471800
     19 N2          1.2350    1.7540   -0.0680 N.a       1 LIG      0.098300
     20 C13         2.4410    1.1600   -0.3460 C.c       1 LIG     -0.162300
     21 N3          3.7080   -0.8680   -0.8180 N.        1 LIG     -0.434100
     22 O2          5.9470   -1.2610   -0.2920 O.2       1 LIG     -0.437900
     23 C14         7.0210   -1.0860    0.6700 C.3       1 LIG      0.151400
     24 O3          4.6020   -0.1570    1.0860 O.3       1 LIG     -0.570000
     25 N4          3.3460    2.1240   -0.3720 N.d       1 LIG     -0.066000
     26 N5          2.7730    3.2510   -0.1320 N.d       1 LIG     -0.354700
     27 C15         1.4890    3.0740    0.0600 C.c       1 LIG      0.355800
     28 C16        -1.0800   -2.5050   -0.2290 C.a       1 LIG     -0.121000
     29 H           9.0880   -1.6100    0.8430 H         1 LIG      0.052700
     30 H1          8.5700   -1.2800   -0.7930 H         1 LIG      0.052700
     31 H2          8.1250   -2.7830   -0.0220 H         1 LIG      0.052700
     32 H3          1.3670   -1.9920   -0.5730 H         1 LIG      0.197000
     33 H4         -0.4900    3.7080    0.4720 H         1 LIG      0.068700
     34 H5          0.4620    4.8610   -0.4320 H         1 LIG      0.068700
     35 H6          0.7480    4.6410    1.2780 H         1 LIG      0.068700
     36 H7         -2.2080   -4.2710   -0.2680 H         1 LIG      0.141000
     37 H8         -4.4750   -4.4760    0.0760 H         1 LIG      0.048700
     38 H9         -5.4100   -3.1050   -0.4700 H         1 LIG      0.048700
     39 H10        -5.1160   -3.3380    1.2370 H         1 LIG      0.048700
     40 H11        -5.3680   -1.0900    1.2030 H         1 LIG      0.459800
     41 H12        -5.7660    0.0820   -2.0860 H         1 LIG      0.120033
     42 H13        -4.0240    0.2080   -2.0220 H         1 LIG      0.120033
     43 H14        -4.9980    1.6450   -2.2230 H         1 LIG      0.120033
     44 H15        -2.3630    0.5240    0.3820 H         1 LIG      0.177000
     45 H16         3.8040   -1.4050   -1.6380 H         1 LIG      0.368500
     46 H17         7.1930   -0.0420    0.8260 H         1 LIG      0.057200
     47 H18         6.7480   -1.5450    1.5970 H         1 LIG      0.057200
     48 H19        -0.1840   -2.9720   -0.4390 H         1 LIG      0.149000
@<TRIPOS>BOND
     1    1   28 ar  
     2    1   18 1   
     3    2   19 ar  
     4    3   21 1   
     5    3   20 ar  
     6    4   22 1   
     7    4   21 1   
     8    6   18 ar  
     9    6    3 ar  
    10    8   28 ar  
    11    9   10 1   
    12   10    8 ar  
    13   11   10 ar  
    14   11   17 ar  
    15   12   11 1   
    16   13   15 2   
    17   13   12 1   
    18   14   13 1   
    19   16   13 2   
    20   17    1 ar  
    21   18    2 ar  
    22   19   20 ar  
    23   19   27 1   
    24   20   25 2   
    25   23    5 1   
    26   23   22 1   
    27   24    4 2   
    28   25   26 1   
    29   27    7 1   
    30   27   26 2   
    31    5   29 1   
    32    5   30 1   
    33    5   31 1   
    34    6   32 1   
    35    7   33 1   
    36    7   34 1   
    37    7   35 1   
    38    8   36 1   
    39    9   37 1   
    40    9   38 1   
    41    9   39 1   
    42   12   40 1   
    43   14   41 1   
    44   14   42 1   
    45   14   43 1   
    46   17   44 1   
    47   21   45 1   
    48   23   46 1   
    49   23   47 1   
    50   28   48 1   
@<TRIPOS>SUBSTRUCTURE
     1 LIG         1 TEMP              0 ****  ****    0 ROOT
