@<TRIPOS>MOLECULE
CKI
   31    32     1     0     0
SMALL
bcc


@<TRIPOS>ATOM
      1 C           1.8600   -0.6190   -0.1950 C.a       1 LIG      0.371200
      2 N           2.8960   -0.3290   -0.9460 N.b       1 LIG     -0.607000
      3 C1          2.7790    0.1570   -2.1740 C.a       1 LIG      0.392200
      4 C2          1.5630    0.3920   -2.7420 C.a       1 LIG     -0.199300
      5 C3         -0.8840    0.3200   -2.5080 C.a       1 LIG      0.116400
      6 Cl         -1.0960    0.9560   -4.1090 C.l       1 LIG     -0.019400
      7 C4         -1.9690    0.0240   -1.7370 C.a       1 LIG     -0.164000
      8 C5         -1.8160   -0.4860   -0.4500 C.a       1 LIG      0.029000
      9 C6         -0.5800   -0.7060    0.0770 C.a       1 LIG     -0.419500
     10 C7          0.5600   -0.4080   -0.6840 C.a       1 LIG     -0.054300
     11 C8          0.4040    0.1070   -1.9970 C.a       1 LIG     -0.038000
     12 S          -0.4130   -1.3520    1.7080 S.y       1 LIG      1.527200
     13 O           0.5130   -2.4250    1.6050 O.3       1 LIG     -0.668800
     14 O1         -1.7350   -1.4540    2.2190 O.3       1 LIG     -0.668800
     15 N1          0.3360   -0.1950    2.6250 N.3       1 LIG     -0.918100
     16 C9         -0.3320    1.0810    2.8820 C.3       1 LIG      0.224800
     17 C10         0.5130    1.9140    3.8490 C.3       1 LIG      0.069800
     18 N2         -0.1570    3.1950    4.1070 N.4       1 LIG     -0.832600
     19 H           2.0000   -1.0010    0.7530 H         1 LIG      0.032100
     20 H1          3.6330    0.3630   -2.7150 H         1 LIG      0.049100
     21 H2          1.4940    0.7710   -3.6990 H         1 LIG      0.171000
     22 H3         -2.9170    0.1800   -2.1130 H         1 LIG      0.174000
     23 H4         -2.6530   -0.7010    0.1140 H         1 LIG      0.162000
     24 H5          1.2180    0.0230    2.1610 H         1 LIG      0.464800
     25 H6         -1.2940    0.8990    3.3140 H         1 LIG      0.086700
     26 H7         -0.4500    1.6140    1.9620 H         1 LIG      0.086700
     27 H8          1.4750    2.0950    3.4170 H         1 LIG      0.111700
     28 H9          0.6300    1.3810    4.7700 H         1 LIG      0.111700
     29 H10        -0.2690    3.7030    3.2300 H         1 LIG      0.469800
     30 H11         0.4060    3.7500    4.7520 H         1 LIG      0.469800
     31 H12        -1.0740    3.0220    4.5190 H         1 LIG      0.469800
@<TRIPOS>BOND
     1    1    2 ar  
     2    1   10 ar  
     3    2    3 ar  
     4    3    4 ar  
     5    4   11 ar  
     6    5    6 1   
     7    5    7 ar  
     8    5   11 ar  
     9    7    8 ar  
    10    8    9 ar  
    11    9   10 ar  
    12    9   12 1   
    13   10   11 ar  
    14   12   13 2   
    15   12   14 2   
    16   12   15 1   
    17   15   16 1   
    18   16   17 1   
    19   17   18 1   
    20    1   19 1   
    21    3   20 1   
    22    4   21 1   
    23    7   22 1   
    24    8   23 1   
    25   15   24 1   
    26   16   25 1   
    27   16   26 1   
    28   17   27 1   
    29   17   28 1   
    30   18   29 1   
    31   18   30 1   
    32   18   31 1   
@<TRIPOS>SUBSTRUCTURE
     1 LIG         1 TEMP              0 ****  ****    0 ROOT
