@<TRIPOS>MOLECULE
3XQ
   67    66     1     0     0
SMALL
bcc


@<TRIPOS>ATOM
      1 C          14.6290    0.3280    0.0300 C.3       1 LIG     -0.092100
      2 C1          4.6360    0.4600    0.1150 C.3       1 LIG     -0.079400
      3 C2          3.3740   -0.3870   -0.0610 C.3       1 LIG     -0.079400
      4 C3         13.3670   -0.5180   -0.1460 C.3       1 LIG     -0.080400
      5 C4          5.8720   -0.4190   -0.0820 C.3       1 LIG     -0.079400
      6 C5          2.1380    0.4930    0.1370 C.3       1 LIG     -0.079400
      7 C6        -11.4560   -0.6580    0.0940 C.3       1 LIG      0.095400
      8 C7         12.1310    0.3610    0.0510 C.3       1 LIG     -0.079400
      9 C8          7.1350    0.4270    0.0940 C.3       1 LIG     -0.079400
     10 C9          0.8760   -0.3540   -0.0390 C.3       1 LIG     -0.079400
     11 C10        10.8690   -0.4860   -0.1250 C.3       1 LIG     -0.079400
     12 C11         8.3710   -0.4520   -0.1040 C.3       1 LIG     -0.079400
     13 C12        -0.3600    0.5260    0.1580 C.3       1 LIG     -0.079400
     14 C13         9.6330    0.3940    0.0730 C.3       1 LIG     -0.079400
     15 C14        -1.6220   -0.3210   -0.0180 C.3       1 LIG     -0.079400
     16 C15        -2.8580    0.5590    0.1790 C.3       1 LIG     -0.078400
     17 C16        -4.1200   -0.2880    0.0030 C.3       1 LIG     -0.079400
     18 C17        -5.3560    0.5920    0.2010 C.3       1 LIG     -0.126400
     19 C18        -8.9630   -0.5410   -0.0240 C.3       1 LIG      0.110400
     20 C19        -6.5990   -0.2420    0.0270 C.        1 LIG      0.634100
     21 C20       -10.2450    0.2750    0.1600 C.3       1 LIG      0.095100
     22 O          -6.5060   -1.4190   -0.2280 O.3       1 LIG     -0.543000
     23 O1        -12.6440    0.0840    0.3810 O.h       1 LIG     -0.598800
     24 O2        -10.3400    1.2530   -0.8770 O.h       1 LIG     -0.590800
     25 O3         -7.8100    0.3230    0.1560 O.2       1 LIG     -0.437900
     26 H          15.4930   -0.2880   -0.1080 H         1 LIG      0.032700
     27 H1         14.6430    0.7470    1.0140 H         1 LIG      0.032700
     28 H2         14.6340    1.1170   -0.6930 H         1 LIG      0.032700
     29 H3          4.6400    1.2480   -0.6080 H         1 LIG      0.039700
     30 H4          4.6500    0.8790    1.0990 H         1 LIG      0.039700
     31 H5          3.3700   -1.1760    0.6620 H         1 LIG      0.039700
     32 H6          3.3600   -0.8060   -1.0460 H         1 LIG      0.039700
     33 H7         13.3630   -1.3060    0.5770 H         1 LIG      0.038700
     34 H8         13.3530   -0.9360   -1.1310 H         1 LIG      0.038700
     35 H9          5.8580   -0.8380   -1.0660 H         1 LIG      0.039700
     36 H10         5.8680   -1.2070    0.6420 H         1 LIG      0.039700
     37 H11         2.1420    1.2820   -0.5860 H         1 LIG      0.039700
     38 H12         2.1520    0.9120    1.1210 H         1 LIG      0.039700
     39 H13       -11.3420   -1.4420    0.8130 H         1 LIG      0.054700
     40 H14       -11.5270   -1.0820   -0.8860 H         1 LIG      0.054700
     41 H15        12.1350    1.1490   -0.6720 H         1 LIG      0.039700
     42 H16        12.1450    0.7800    1.0360 H         1 LIG      0.039700
     43 H17         7.1490    0.8460    1.0790 H         1 LIG      0.039700
     44 H18         7.1390    1.2150   -0.6290 H         1 LIG      0.039700
     45 H19         0.8720   -1.1420    0.6840 H         1 LIG      0.040200
     46 H20         0.8620   -0.7730   -1.0230 H         1 LIG      0.040200
     47 H21        10.8650   -1.2750    0.5980 H         1 LIG      0.039700
     48 H22        10.8550   -0.9050   -1.1090 H         1 LIG      0.039700
     49 H23         8.3570   -0.8700   -1.0890 H         1 LIG      0.039700
     50 H24         8.3670   -1.2410    0.6190 H         1 LIG      0.039700
     51 H25        -0.3560    1.3140   -0.5660 H         1 LIG      0.040200
     52 H26        -0.3460    0.9450    1.1420 H         1 LIG      0.040200
     53 H27         9.6380    1.1830   -0.6500 H         1 LIG      0.039700
     54 H28         9.6470    0.8120    1.0580 H         1 LIG      0.039700
     55 H29        -1.6260   -1.1090    0.7060 H         1 LIG      0.042700
     56 H30        -1.6360   -0.7400   -1.0020 H         1 LIG      0.042700
     57 H31        -2.8540    1.3470   -0.5440 H         1 LIG      0.041200
     58 H32        -2.8440    0.9780    1.1630 H         1 LIG      0.041200
     59 H33        -4.1240   -1.0770    0.7260 H         1 LIG      0.057200
     60 H34        -4.1340   -0.7070   -0.9820 H         1 LIG      0.057200
     61 H35        -5.3520    1.3810   -0.5220 H         1 LIG      0.080200
     62 H36        -5.3420    1.0100    1.1860 H         1 LIG      0.080200
     63 H37        -8.9350   -1.3290    0.6990 H         1 LIG      0.060200
     64 H38        -8.9450   -0.9600   -1.0080 H         1 LIG      0.060200
     65 H39       -10.2230    0.7650    1.1110 H         1 LIG      0.095700
     66 H40       -12.5790    0.4680    1.2690 H         1 LIG      0.414000
     67 H41       -10.3600    0.8090   -1.7390 H         1 LIG      0.411000
@<TRIPOS>BOND
     1    1    4 1   
     2    2    5 1   
     3    3    2 1   
     4    4    8 1   
     5    5    9 1   
     6    6    3 1   
     7    7   21 1   
     8    7   23 1   
     9    8   11 1   
    10   10    6 1   
    11   11   14 1   
    12   12    9 1   
    13   12   14 1   
    14   13   10 1   
    15   15   13 1   
    16   16   15 1   
    17   17   16 1   
    18   18   17 1   
    19   19   25 1   
    20   20   22 2   
    21   20   18 1   
    22   21   19 1   
    23   24   21 1   
    24   25   20 1   
    25    1   26 1   
    26    1   27 1   
    27    1   28 1   
    28    2   29 1   
    29    2   30 1   
    30    3   31 1   
    31    3   32 1   
    32    4   33 1   
    33    4   34 1   
    34    5   35 1   
    35    5   36 1   
    36    6   37 1   
    37    6   38 1   
    38    7   39 1   
    39    7   40 1   
    40    8   41 1   
    41    8   42 1   
    42    9   43 1   
    43    9   44 1   
    44   10   45 1   
    45   10   46 1   
    46   11   47 1   
    47   11   48 1   
    48   12   49 1   
    49   12   50 1   
    50   13   51 1   
    51   13   52 1   
    52   14   53 1   
    53   14   54 1   
    54   15   55 1   
    55   15   56 1   
    56   16   57 1   
    57   16   58 1   
    58   17   59 1   
    59   17   60 1   
    60   18   61 1   
    61   18   62 1   
    62   19   63 1   
    63   19   64 1   
    64   21   65 1   
    65   23   66 1   
    66   24   67 1   
@<TRIPOS>SUBSTRUCTURE
     1 LIG         1 TEMP              0 ****  ****    0 ROOT
