@<TRIPOS>MOLECULE
P5A
   52    55     1     0     0
SMALL
bcc


@<TRIPOS>ATOM
      1 C           2.6680    0.4220   -5.2840 c3        1 LIG     -0.094400
      2 C1          4.2020    0.3060   -5.1750 c3        1 LIG     -0.100400
      3 C2          0.8770   -0.1490   -3.6280 c         1 LIG      0.682100
      4 O           0.8890   -1.3160   -3.2950 o         1 LIG     -0.533100
      5 N           3.2480   -0.0090   -2.9960 n4        1 LIG     -0.758000
      6 C3          4.5070    0.4130   -3.6650 c3        1 LIG      0.110800
      7 C4          2.1740    0.5890   -3.8300 c3        1 LIG      0.037500
      8 N1         -0.2960    0.4840   -3.8170 n         1 LIG     -0.654300
      9 S          -1.7220   -0.3270   -3.5940 s6        1 LIG      1.702100
     10 O1         -1.6250   -1.5020   -4.3880 o         1 LIG     -0.610300
     11 O2         -2.7450    0.6520   -3.6970 o         1 LIG     -0.610300
     12 O3         -1.7520   -0.8060   -2.1500 os        1 LIG     -0.548500
     13 C5         -2.3670    0.2300   -1.3830 c3        1 LIG      0.170400
     14 C6         -2.4290   -0.1890    0.0860 c3        1 LIG      0.126100
     15 O4         -1.0980   -0.3940    0.6060 os        1 LIG     -0.383600
     16 C7         -1.2310   -0.2920    2.0410 c3        1 LIG      0.197800
     17 N2          0.0650    0.0060    2.6530 na        1 LIG     -0.265000
     18 C8          0.4570   -0.3200    3.9270 ca        1 LIG      0.471800
     19 N3         -0.1110   -0.9460    4.9520 nb        1 LIG     -0.660000
     20 C9          0.5400   -1.1120    6.0830 ca        1 LIG      0.671900
     21 N4          1.7730   -0.6730    6.2610 nb        1 LIG     -0.821000
     22 C10         2.4230   -0.0350    5.2930 ca        1 LIG      0.664200
     23 N5          3.7150    0.4200    5.4890 nh        1 LIG     -0.942500
     24 C11         1.7660    0.1700    4.0680 ca        1 LIG     -0.218200
     25 N6          2.1030    0.7530    2.8920 nc        1 LIG     -0.549100
     26 C12         1.1050    0.6600    2.0620 cd        1 LIG      0.425700
     27 C13        -2.2140    0.8770    2.2670 c3        1 LIG      0.086100
     28 O5         -3.0810    0.6050    3.3690 oh        1 LIG     -0.565800
     29 C14        -3.0200    0.9470    0.9480 c3        1 LIG      0.079100
     30 O6         -4.4080    0.7180    1.1960 oh        1 LIG     -0.578800
     31 H           2.2540   -0.4620   -5.7220 hc        1 LIG      0.096200
     32 H1          2.3700    1.2410   -5.9050 hc        1 LIG      0.096200
     33 H2          4.6780    1.1000   -5.7120 hc        1 LIG      0.097700
     34 H3          4.5660   -0.6090   -5.5940 hc        1 LIG      0.097700
     35 H4          3.2070    0.3500   -2.0420 hn        1 LIG      0.480300
     36 H5          3.1660   -1.0230   -2.9220 hn        1 LIG      0.480300
     37 H6          4.7560    1.4190   -3.4010 hx        1 LIG      0.113700
     38 H7          5.3420   -0.1910   -3.3760 hx        1 LIG      0.113700
     39 H8          1.9880    1.6120   -3.5790 hx        1 LIG      0.137700
     40 H9         -0.3060    1.4300   -4.0880 hn        1 LIG      0.345500
     41 H10        -3.3580    0.4020   -1.7470 h1        1 LIG      0.052200
     42 H11        -1.7920    1.1280   -1.4730 h1        1 LIG      0.052200
     43 H12        -3.0230   -1.0780    0.1290 h1        1 LIG      0.133700
     44 H13        -1.5800   -1.2030    2.4800 h2        1 LIG      0.143700
     45 H14         0.0700   -1.6030    6.8600 h5        1 LIG      0.072100
     46 H15         4.1640    0.2700    6.3520 hn        1 LIG      0.418800
     47 H16         4.1850    0.8940    4.7650 hn        1 LIG      0.418800
     48 H17         1.1010    1.0280    1.0980 h5        1 LIG      0.084800
     49 H18        -1.7140    1.7950    2.4980 h1        1 LIG      0.103700
     50 H19        -3.5600   -0.2230    3.2070 ho        1 LIG      0.432000
     51 H20        -2.9510    1.9030    0.4730 h1        1 LIG      0.063700
     52 H21        -4.5210   -0.1430    1.6290 ho        1 LIG      0.431000
@<TRIPOS>BOND
     1    1    2 1   
     2    1    7 1   
     3    2    6 1   
     4    3    4 2   
     5    3    7 1   
     6    3    8 1   
     7    5    6 1   
     8    5    7 1   
     9    8    9 1   
    10    9   10 2   
    11    9   11 2   
    12    9   12 1   
    13   12   13 1   
    14   13   14 1   
    15   14   15 1   
    16   14   29 1   
    17   15   16 1   
    18   16   17 1   
    19   16   27 1   
    20   17   18 1   
    21   17   26 1   
    22   18   19 ar  
    23   18   24 ar  
    24   19   20 ar  
    25   20   21 ar  
    26   21   22 ar  
    27   22   23 1   
    28   22   24 ar  
    29   24   25 1   
    30   25   26 2   
    31   27   28 1   
    32   27   29 1   
    33   29   30 1   
    34    1   31 1   
    35    1   32 1   
    36    2   33 1   
    37    2   34 1   
    38    5   35 1   
    39    5   36 1   
    40    6   37 1   
    41    6   38 1   
    42    7   39 1   
    43    8   40 1   
    44   13   41 1   
    45   13   42 1   
    46   14   43 1   
    47   16   44 1   
    48   20   45 1   
    49   23   46 1   
    50   23   47 1   
    51   26   48 1   
    52   27   49 1   
    53   28   50 1   
    54   29   51 1   
    55   30   52 1   
@<TRIPOS>SUBSTRUCTURE
     1 LIG         1 TEMP              0 ****  ****    0 ROOT
