@<TRIPOS>MOLECULE
GU1
   28    28     1     0     0
SMALL
bcc


@<TRIPOS>ATOM
      1 O          -1.4870    2.6810    0.1470 O.h       1 LIG     -0.631800
      2 C          -0.8110    1.4750    0.5080 C.3       1 LIG      0.318900
      3 C1         -1.4970    0.2840   -0.1660 C.3       1 LIG      0.095100
      4 O1         -2.8410    0.1770    0.3050 O.2       1 LIG     -0.421600
      5 C2         -3.7890    0.9120   -0.4720 C.3       1 LIG      0.117700
      6 C3         -0.7300   -0.9970    0.1780 C.3       1 LIG      0.139100
      7 O2         -1.3190   -2.1050   -0.5070 O.2       1 LIG     -0.428600
      8 C4         -1.1920   -3.3500    0.1840 C.3       1 LIG      0.120700
      9 O3          0.5500    1.5450    0.0800 O.2       1 LIG     -0.412600
     10 C5          1.3280    0.3940    0.4160 C.3       1 LIG     -0.015900
     11 C6          2.7450    0.5900   -0.0570 C.        1 LIG      0.931600
     12 O4          3.6830   -0.3240    0.2390 O.3       1 LIG     -0.818800
     13 O5          3.0370    1.5680   -0.7030 O.3       1 LIG     -0.818800
     14 C7          0.7280   -0.8400   -0.2620 C.3       1 LIG      0.122100
     15 O6          1.4700   -2.0010    0.1190 O.h       1 LIG     -0.651800
     16 H          -2.4110    2.6330    0.4380 H         1 LIG      0.432000
     17 H1         -0.8450    1.3520    1.5700 H         1 LIG      0.057700
     18 H2         -1.5050    0.4260   -1.2260 H         1 LIG      0.066700
     19 H3         -4.7670    0.7820   -0.0580 H         1 LIG      0.030033
     20 H4         -3.7780    0.5540   -1.4800 H         1 LIG      0.030033
     21 H5         -3.5320    1.9500   -0.4600 H         1 LIG      0.030033
     22 H6         -0.7720   -1.1710    1.2330 H         1 LIG      0.061700
     23 H7         -1.6550   -4.1250   -0.3900 H         1 LIG      0.030367
     24 H8         -1.6700   -3.2790    1.1390 H         1 LIG      0.030367
     25 H9         -0.1550   -3.5780    0.3210 H         1 LIG      0.030367
     26 H10         1.3240    0.2560    1.4770 H         1 LIG      0.036700
     27 H11         0.7720   -0.7240   -1.3250 H         1 LIG      0.060700
     28 H12         1.4310   -2.1080    1.0820 H         1 LIG      0.458000
@<TRIPOS>BOND
     1    1    2 1   
     2    2    3 1   
     3    2    9 1   
     4    3    4 1   
     5    3    6 1   
     6    4    5 1   
     7    6    7 1   
     8    6   14 1   
     9    7    8 1   
    10    9   10 1   
    11   10   11 1   
    12   10   14 1   
    13   11   12 1   
    14   11   13 1   
    15   14   15 1   
    16    1   16 1   
    17    2   17 1   
    18    3   18 1   
    19    5   19 1   
    20    5   20 1   
    21    5   21 1   
    22    6   22 1   
    23    8   23 1   
    24    8   24 1   
    25    8   25 1   
    26   10   26 1   
    27   14   27 1   
    28   15   28 1   
@<TRIPOS>SUBSTRUCTURE
     1 LIG         1 TEMP              0 ****  ****    0 ROOT
