@<TRIPOS>MOLECULE
G9L
   51    54     1     0     0
SMALL
bcc


@<TRIPOS>ATOM
      1 N          -5.2470    0.4360    0.0250 n4        1 LIG     -0.686400
      2 N1         -0.4330    0.2470    0.9790 n         1 LIG     -0.436800
      3 N2          2.6470   -2.3330    0.0030 n         1 LIG     -0.454100
      4 O          -1.4340    1.9740    0.0100 o         1 LIG     -0.601100
      5 O1          4.7190   -2.7940   -0.6610 o         1 LIG     -0.606500
      6 F           7.0360    1.7220   -0.8130 f         1 LIG     -0.123900
      7 C           4.8190    2.1660   -0.0980 ca        1 LIG     -0.123000
      8 C1          3.5630    1.7340    0.2240 ca        1 LIG     -0.125000
      9 C2          5.5310   -0.0830   -0.5830 ca        1 LIG     -0.100000
     10 C3         -7.7600   -0.5730   -0.9750 c3        1 LIG     -0.098400
     11 C4         -7.6800    0.6860   -0.1080 c3        1 LIG     -0.106900
     12 C5         -6.5960   -1.5030   -0.6210 c3        1 LIG     -0.106900
     13 C6         -2.8720    0.1870    0.5670 c3        1 LIG     -0.182400
     14 C7          0.3170   -2.0380    0.7070 c3        1 LIG     -0.076200
     15 C8         -6.3270    1.3660   -0.3290 c3        1 LIG      0.112300
     16 C9         -5.2750   -0.7600   -0.8260 c3        1 LIG      0.112300
     17 C10        -3.9380    1.1000   -0.0420 c3        1 LIG      0.109800
     18 C11        -0.5090   -1.0960    1.5790 c3        1 LIG      0.085000
     19 C12         0.8910    0.8750    0.9240 c3        1 LIG      0.135200
     20 C13        -1.5290    0.8680    0.4980 c         1 LIG      0.658100
     21 C14         5.8030    1.2680   -0.5000 ca        1 LIG      0.118900
     22 C15         1.6700   -1.4440    0.3940 cc        1 LIG      0.059400
     23 C16         1.9220   -0.1330    0.4860 cd        1 LIG     -0.177400
     24 C17         3.8960   -1.9630   -0.3210 c         1 LIG      0.707100
     25 C18         3.2610    0.3730    0.1480 ca        1 LIG      0.001200
     26 C19         4.2550   -0.5420   -0.2580 ca        1 LIG     -0.125600
     27 H          -5.3990    0.1350    0.9880 hn        1 LIG      0.440800
     28 H1          2.4170   -3.2890   -0.0410 hn        1 LIG      0.336500
     29 H2          5.0410    3.1720   -0.0420 ha        1 LIG      0.160000
     30 H3          2.8420    2.4100    0.5220 ha        1 LIG      0.142000
     31 H4          6.2640   -0.7460   -0.8820 ha        1 LIG      0.183000
     32 H5         -7.6990   -0.3010   -2.0080 hc        1 LIG      0.081200
     33 H6         -8.6880   -1.0750   -0.7960 hc        1 LIG      0.081200
     34 H7         -7.7810    0.4170    0.9230 hc        1 LIG      0.086950
     35 H8         -8.4680    1.3580   -0.3780 hc        1 LIG      0.086950
     36 H9         -6.6230   -2.3660   -1.2530 hc        1 LIG      0.086950
     37 H10        -6.6800   -1.8100    0.4010 hc        1 LIG      0.086950
     38 H11        -3.1170   -0.0160    1.5890 hc        1 LIG      0.082700
     39 H12        -2.8350   -0.7320    0.0200 hc        1 LIG      0.082700
     40 H13         0.4540   -2.9640    1.2250 hc        1 LIG      0.070200
     41 H14        -0.2060   -2.1950   -0.2130 hc        1 LIG      0.070200
     42 H15        -6.2330    1.6470   -1.3570 hx        1 LIG      0.102700
     43 H16        -6.2620    2.2390    0.2870 hx        1 LIG      0.102700
     44 H17        -5.1850   -0.4700   -1.8520 hx        1 LIG      0.102700
     45 H18        -4.4610   -1.4030   -0.5640 hx        1 LIG      0.102700
     46 H19        -3.9760    2.0190    0.5050 hx        1 LIG      0.124200
     47 H20        -3.6930    1.3030   -1.0630 hx        1 LIG      0.124200
     48 H21        -1.5270   -1.4250    1.6090 h1        1 LIG      0.062700
     49 H22        -0.1320   -1.0820    2.5800 h1        1 LIG      0.062700
     50 H23         1.1480    1.2460    1.8940 h1        1 LIG      0.086200
     51 H24         0.8680    1.6820    0.2220 h1        1 LIG      0.086200
@<TRIPOS>BOND
     1    1   15 1   
     2    1   17 1   
     3    2   18 1   
     4    2   19 1   
     5    3   24 1   
     6    4   20 2   
     7    7   21 ar  
     8    8    7 ar  
     9    8   25 ar  
    10   10   11 1   
    11   11   15 1   
    12   12   10 1   
    13   12   16 1   
    14   13   20 1   
    15   14   22 1   
    16   16    1 1   
    17   17   13 1   
    18   18   14 1   
    19   19   23 1   
    20   20    2 1   
    21   21    6 1   
    22   21    9 ar  
    23   22    3 1   
    24   23   22 2   
    25   23   25 1   
    26   24    5 2   
    27   25   26 ar  
    28   26    9 ar  
    29   26   24 1   
    30    1   27 1   
    31    3   28 1   
    32    7   29 1   
    33    8   30 1   
    34    9   31 1   
    35   10   32 1   
    36   10   33 1   
    37   11   34 1   
    38   11   35 1   
    39   12   36 1   
    40   12   37 1   
    41   13   38 1   
    42   13   39 1   
    43   14   40 1   
    44   14   41 1   
    45   15   42 1   
    46   15   43 1   
    47   16   44 1   
    48   16   45 1   
    49   17   46 1   
    50   17   47 1   
    51   18   48 1   
    52   18   49 1   
    53   19   50 1   
    54   19   51 1   
@<TRIPOS>SUBSTRUCTURE
     1 LIG         1 TEMP              0 ****  ****    0 ROOT
