@<TRIPOS>MOLECULE
IZP
   32    32     1     0     0
SMALL
bcc


@<TRIPOS>ATOM
      1 C           3.4480    0.3590    0.1900 C.        1 LIG      0.922600
      2 O           4.7790    0.1950    0.1390 O.3       1 LIG     -0.837300
      3 C1         -2.9660    0.9010    0.3960 C.3       1 LIG     -0.019100
      4 O1          2.9810    1.4580    0.3740 O.3       1 LIG     -0.837300
      5 C2         -3.8470   -0.0080   -0.4630 C.3       1 LIG     -0.067700
      6 C3         -3.8280   -1.4260    0.1100 C.3       1 LIG     -0.088100
      7 C4         -5.2820    0.5240   -0.4610 C.3       1 LIG     -0.088100
      8 C5          2.5350   -0.8270    0.0120 C.3       1 LIG     -0.167400
      9 C6          2.7780   -1.4550   -1.3620 C.3       1 LIG     -0.061100
     10 C7          1.1010   -0.3760    0.1120 C.a       1 LIG     -0.012300
     11 C8          0.6060    0.5570   -0.7800 C.a       1 LIG     -0.133500
     12 C9         -0.7100    0.9700   -0.6880 C.a       1 LIG     -0.140000
     13 C10        -1.5310    0.4500    0.2950 C.a       1 LIG     -0.120300
     14 C11        -1.0360   -0.4830    1.1870 C.a       1 LIG     -0.140000
     15 C12         0.2780   -0.9000    1.0920 C.a       1 LIG     -0.133500
     16 H          -3.2860    0.8480    1.4160 H         1 LIG      0.035200
     17 H1         -3.0490    1.9100    0.0490 H         1 LIG      0.035200
     18 H2         -3.4730   -0.0240   -1.4660 H         1 LIG      0.055700
     19 H3         -4.2020   -1.4110    1.1130 H         1 LIG      0.028367
     20 H4         -2.8250   -1.7980    0.1090 H         1 LIG      0.028367
     21 H5         -4.4440   -2.0620   -0.4910 H         1 LIG      0.028367
     22 H6         -5.6550    0.5400    0.5420 H         1 LIG      0.028367
     23 H7         -5.8990   -0.1120   -1.0610 H         1 LIG      0.028367
     24 H8         -5.2950    1.5160   -0.8620 H         1 LIG      0.028367
     25 H9          2.7350   -1.5500    0.7750 H         1 LIG      0.044700
     26 H10         2.5780   -0.7320   -2.1250 H         1 LIG      0.020033
     27 H11         2.1300   -2.2970   -1.4890 H         1 LIG      0.020033
     28 H12         3.7960   -1.7750   -1.4330 H         1 LIG      0.020033
     29 H13         1.2190    0.9450   -1.5140 H         1 LIG      0.152500
     30 H14        -1.0800    1.6670   -1.3530 H         1 LIG      0.109000
     31 H15        -1.6480   -0.8680    1.9240 H         1 LIG      0.109000
     32 H16         0.6450   -1.6030    1.7530 H         1 LIG      0.152500
@<TRIPOS>BOND
     1    1    8 1   
     2    1    2 1   
     3    3    5 1   
     4    4    1 1   
     5    5    6 1   
     6    5    7 1   
     7    8   10 1   
     8    9    8 1   
     9   10   15 ar  
    10   10   11 ar  
    11   11   12 ar  
    12   12   13 ar  
    13   13    3 1   
    14   14   13 ar  
    15   15   14 ar  
    16    3   16 1   
    17    3   17 1   
    18    5   18 1   
    19    6   19 1   
    20    6   20 1   
    21    6   21 1   
    22    7   22 1   
    23    7   23 1   
    24    7   24 1   
    25    8   25 1   
    26    9   26 1   
    27    9   27 1   
    28    9   28 1   
    29   11   29 1   
    30   12   30 1   
    31   14   31 1   
    32   15   32 1   
@<TRIPOS>SUBSTRUCTURE
     1 LIG         1 TEMP              0 ****  ****    0 ROOT
