@<TRIPOS>MOLECULE
02J
   13    13     1     0     0
SMALL
bcc


@<TRIPOS>ATOM
      1 C          -0.7070    0.9040    0.0020 cc        1 LIG     -0.335600
      2 C1         -1.8330    0.1530    0.0000 cd        1 LIG      0.202000
      3 C2         -3.2530    0.6600   -0.0040 c3        1 LIG     -0.116400
      4 O          -1.4420   -1.1280    0.0020 os        1 LIG     -0.171100
      5 N          -0.2370   -1.2310    0.0040 nd        1 LIG     -0.394300
      6 C3          0.3430   -0.0560   -0.0010 cc        1 LIG      0.309800
      7 C4          1.8000    0.2180   -0.0010 c         1 LIG      0.835100
      8 O1          2.2030    1.3630    0.0030 o         1 LIG     -0.807800
      9 O2          2.6770   -0.8040   -0.0040 o         1 LIG     -0.807800
     10 H          -0.6280    1.9330    0.0050 ha        1 LIG      0.161000
     11 H1         -3.2500    1.7300   -0.0050 hc        1 LIG      0.041700
     12 H2         -3.7610    0.3060    0.8690 hc        1 LIG      0.041700
     13 H3         -3.7560    0.3040   -0.8790 hc        1 LIG      0.041700
@<TRIPOS>BOND
     1    1    2 ar  
     2    2    3 1   
     3    4    2 ar  
     4    5    4 ar  
     5    6    1 ar  
     6    6    5 ar  
     7    7    6 1   
     8    7    9 1   
     9    8    7 1   
    10    1   10 1   
    11    3   11 1   
    12    3   12 1   
    13    3   13 1   
@<TRIPOS>SUBSTRUCTURE
     1 LIG         1 TEMP              0 ****  ****    0 ROOT
