@<TRIPOS>MOLECULE
D6K
   24    24     1     0     0
SMALL
bcc


@<TRIPOS>ATOM
      1 C           2.6860    1.1490    0.2150 C.3       1 LIG     -0.090100
      2 C1         -2.0730    1.5950   -0.4690 C.3       1 LIG     -0.111100
      3 C2         -1.2960    0.1120    1.3870 C.3       1 LIG     -0.111100
      4 C3          1.3920   -0.8190   -0.6310 C.3       1 LIG     -0.170400
      5 C4          1.3650    0.3830    0.3190 C.3       1 LIG      0.142100
      6 C5         -0.9950    0.6010   -0.0320 C.3       1 LIG      0.344600
      7 C6          0.0160   -1.4940   -0.6190 C.3       1 LIG      0.338900
      8 O          -0.2360   -2.0440    0.6750 O.h       1 LIG     -0.610800
      9 O1          0.2830    1.2430   -0.0500 O.2       1 LIG     -0.432600
     10 O2         -0.9820   -0.5170   -0.9300 O.2       1 LIG     -0.456600
     11 H           3.4940    0.5050    0.4910 H         1 LIG      0.048367
     12 H1          2.6620    1.9930    0.8720 H         1 LIG      0.048367
     13 H2          2.8250    1.4850   -0.7910 H         1 LIG      0.048367
     14 H3         -3.0290    1.1140   -0.4550 H         1 LIG      0.054033
     15 H4         -1.8610    1.9380   -1.4600 H         1 LIG      0.054033
     16 H5         -2.0830    2.4280    0.2030 H         1 LIG      0.054033
     17 H6         -2.2520   -0.3690    1.4030 H         1 LIG      0.054033
     18 H7         -1.3050    0.9460    2.0570 H         1 LIG      0.054033
     19 H8         -0.5420   -0.5830    1.6920 H         1 LIG      0.054033
     20 H9          2.1360   -1.5160   -0.3070 H         1 LIG      0.071700
     21 H10         1.6260   -0.4920   -1.6230 H         1 LIG      0.071700
     22 H11         1.2330    0.0450    1.3260 H         1 LIG      0.032700
     23 H12        -0.0090   -2.2800   -1.3440 H         1 LIG      0.109700
     24 H13        -0.2140   -1.3360    1.3370 H         1 LIG      0.400000
@<TRIPOS>BOND
     1    2    6 1   
     2    3    6 1   
     3    5    4 1   
     4    5    1 1   
     5    6   10 1   
     6    6    9 1   
     7    7    4 1   
     8    8    7 1   
     9    9    5 1   
    10   10    7 1   
    11    1   11 1   
    12    1   12 1   
    13    1   13 1   
    14    2   14 1   
    15    2   15 1   
    16    2   16 1   
    17    3   17 1   
    18    3   18 1   
    19    3   19 1   
    20    4   20 1   
    21    4   21 1   
    22    5   22 1   
    23    7   23 1   
    24    8   24 1   
@<TRIPOS>SUBSTRUCTURE
     1 LIG         1 TEMP              0 ****  ****    0 ROOT
