@<TRIPOS>MOLECULE
CSD
   15    14     1     0     0
SMALL
bcc


@<TRIPOS>ATOM
      1 N1          0.6330    1.6360    0.2680 N.4       1 <1>     -0.849600
      2 C1          0.8720    0.2030    0.4820 C.3       1 <1>      0.031500
      3 C2         -0.1790   -0.6090   -0.2790 C.3       1 <1>     -0.108100
      4 S1         -1.8330   -0.1750    0.3270 S.4       1 <1>      0.148500
      5 C3          2.2460   -0.1580   -0.0210 C.        1 <1>      0.913600
      6 O1          2.8070    0.5610   -0.8140 O.3       1 <1>     -0.815800
      7 O2          2.8470   -1.2780    0.4110 O.3       1 <1>     -0.815800
      8 O3         -2.1650    1.1380   -0.1030 O.3       1 <1>     -0.551900
      9 O4         -2.7470   -1.0530   -0.5160 O.3       1 <1>     -0.551900
     10 H1         -0.2970    1.8800    0.6090 H         1 <1>      0.458133
     11 H2          0.6960    1.8460   -0.7280 H         1 <1>      0.458133
     12 H3          1.3330    2.1770    0.7750 H         1 <1>      0.458133
     13 H4          0.8050   -0.0170    1.5270 H         1 <1>      0.073700
     14 H5         -0.0050   -1.6530   -0.1230 H         1 <1>      0.075700
     15 H6         -0.1130   -0.3890   -1.3240 H         1 <1>      0.075700
@<TRIPOS>BOND
     1    1    2 1   
     2    2    3 1   
     3    2    5 1   
     4    3    4 1   
     5    4    8 1   
     6    4    9 1   
     7    5    6 1   
     8    5    7 1   
     9    1   10 1   
    10    1   11 1   
    11    1   12 1   
    12    2   13 1   
    13    3   14 1   
    14    3   15 1   
@<TRIPOS>SUBSTRUCTURE
     1 <1>         1 TEMP              0 ****  ****    0 ROOT
