@<TRIPOS>MOLECULE
BDD
   39    38     1     0     0
SMALL
bcc


@<TRIPOS>ATOM
      1 O          -0.1570   -0.0010   10.0870 O.h       1 LIG     -0.601800
      2 C           0.6180    0.0060    8.8880 C.3       1 LIG      0.132400
      3 C1         -0.3140   -0.0030    7.6760 C.3       1 LIG     -0.084400
      4 C2          0.5160    0.0050    6.3910 C.3       1 LIG     -0.078400
      5 C3         -0.4160   -0.0040    5.1790 C.3       1 LIG     -0.078400
      6 C4          0.4140    0.0040    3.8950 C.3       1 LIG     -0.079400
      7 C5         -0.5190   -0.0050    2.6830 C.3       1 LIG     -0.079400
      8 C6          0.3120    0.0030    1.3980 C.3       1 LIG     -0.079400
      9 C7         -0.6210   -0.0060    0.1860 C.3       1 LIG     -0.079400
     10 C8          0.2100    0.0020   -1.0970 C.3       1 LIG     -0.078400
     11 C9         -0.7230   -0.0070   -2.3090 C.3       1 LIG     -0.080400
     12 C10         0.1080    0.0010   -3.5930 C.3       1 LIG     -0.081400
     13 C11        -0.8250   -0.0090   -4.8050 C.3       1 LIG     -0.009000
     14 Br          0.2430    0.0020   -6.4560 B.r       1 LIG     -0.179400
     15 H           0.4350    0.0050   10.8550 H         1 LIG      0.398000
     16 H1          1.2430   -0.8620    8.8630 H         1 LIG      0.019700
     17 H2          1.2260    0.8860    8.8630 H         1 LIG      0.019700
     18 H3         -0.9400    0.8650    7.7010 H         1 LIG      0.055700
     19 H4         -0.9220   -0.8830    7.7010 H         1 LIG      0.055700
     20 H5          1.1420   -0.8630    6.3660 H         1 LIG      0.039700
     21 H6          1.1240    0.8850    6.3660 H         1 LIG      0.039700
     22 H7         -1.0420    0.8640    5.2040 H         1 LIG      0.041700
     23 H8         -1.0240   -0.8840    5.2040 H         1 LIG      0.041700
     24 H9          1.0400   -0.8640    3.8700 H         1 LIG      0.039700
     25 H10         1.0220    0.8840    3.8700 H         1 LIG      0.039700
     26 H11        -1.1450    0.8630    2.7080 H         1 LIG      0.040700
     27 H12        -1.1270   -0.8850    2.7080 H         1 LIG      0.040700
     28 H13         0.9380   -0.8650    1.3730 H         1 LIG      0.039700
     29 H14         0.9200    0.8830    1.3730 H         1 LIG      0.039700
     30 H15        -1.2470    0.8620    0.2110 H         1 LIG      0.040700
     31 H16        -1.2300   -0.8860    0.2110 H         1 LIG      0.040700
     32 H17         0.8360   -0.8660   -1.1220 H         1 LIG      0.041700
     33 H18         0.8190    0.8820   -1.1220 H         1 LIG      0.041700
     34 H19        -1.3490    0.8610   -2.2840 H         1 LIG      0.041700
     35 H20        -1.3310   -0.8870   -2.2840 H         1 LIG      0.041700
     36 H21         0.7340   -0.8660   -3.6180 H         1 LIG      0.055700
     37 H22         0.7160    0.8810   -3.6190 H         1 LIG      0.055700
     38 H23        -1.4510    0.8580   -4.7800 H         1 LIG      0.071700
     39 H24        -1.4330   -0.8890   -4.7800 H         1 LIG      0.071700
@<TRIPOS>BOND
     1    1    2 1   
     2    2    3 1   
     3    3    4 1   
     4    4    5 1   
     5    5    6 1   
     6    6    7 1   
     7    7    8 1   
     8    8    9 1   
     9    9   10 1   
    10   10   11 1   
    11   11   12 1   
    12   12   13 1   
    13   13   14 1   
    14    1   15 1   
    15    2   16 1   
    16    2   17 1   
    17    3   18 1   
    18    3   19 1   
    19    4   20 1   
    20    4   21 1   
    21    5   22 1   
    22    5   23 1   
    23    6   24 1   
    24    6   25 1   
    25    7   26 1   
    26    7   27 1   
    27    8   28 1   
    28    8   29 1   
    29    9   30 1   
    30    9   31 1   
    31   10   32 1   
    32   10   33 1   
    33   11   34 1   
    34   11   35 1   
    35   12   36 1   
    36   12   37 1   
    37   13   38 1   
    38   13   39 1   
@<TRIPOS>SUBSTRUCTURE
     1 LIG         1 TEMP              0 ****  ****    0 ROOT
