@<TRIPOS>MOLECULE
324
   41    43     1     0     0
SMALL
bcc


@<TRIPOS>ATOM
      1 O          -5.2930   -1.2580   -0.1190 o         1 LIG     -0.643300
      2 S          -4.8670   -0.2130   -0.9830 s6        1 LIG      1.458900
      3 O1         -5.4110   -0.0730   -2.2880 o         1 LIG     -0.643300
      4 C          -4.8850    1.3790   -0.1120 c3        1 LIG     -0.330600
      5 C1         -6.3310    1.7810    0.1860 c3        1 LIG     -0.056400
      6 C2         -6.3460    3.1230    0.9200 c3        1 LIG     -0.088100
      7 N          -3.2610   -0.5250   -1.2400 nh        1 LIG     -0.773500
      8 C3         -2.3870   -0.6390   -0.1520 ca        1 LIG      0.113600
      9 C4         -1.0840   -0.1720   -0.2580 ca        1 LIG      0.134900
     10 F          -0.6580    0.3930   -1.4080 f         1 LIG     -0.125900
     11 C5         -2.8260   -1.2140    1.0330 ca        1 LIG     -0.123000
     12 C6         -1.9690   -1.3290    2.1120 ca        1 LIG     -0.155000
     13 C7         -0.6680   -0.8740    2.0190 ca        1 LIG      0.155900
     14 F1          0.1660   -0.9890    3.0760 f         1 LIG     -0.120900
     15 C8         -0.2160   -0.2880    0.8320 ca        1 LIG     -0.206600
     16 C9          1.1720    0.2060    0.7290 c         1 LIG      0.631900
     17 O2          1.4500    1.3250    1.1200 o         1 LIG     -0.509100
     18 C10         2.2160   -0.6520    0.1570 cc        1 LIG     -0.226400
     19 C11         2.0830   -1.9540   -0.2340 cd        1 LIG     -0.023100
     20 C12         3.6150   -0.2780   -0.1170 ca        1 LIG     -0.147100
     21 C13         4.3620    0.8860    0.0500 ca        1 LIG     -0.036000
     22 C14         4.2240   -1.4230   -0.6600 ca        1 LIG      0.406800
     23 N1          3.2660   -2.4110   -0.7140 na        1 LIG     -0.270100
     24 N2          5.5030   -1.3850   -1.0090 nb        1 LIG     -0.653000
     25 C15         6.2290   -0.2970   -0.8620 ca        1 LIG      0.421200
     26 C16         5.6930    0.8660   -0.3330 ca        1 LIG     -0.123900
     27 Cl          6.6780    2.2840   -0.1520 cl        1 LIG     -0.072400
     28 H          -4.4260    2.1260   -0.7250 h1        1 LIG      0.117200
     29 H1         -4.3430    1.2890    0.8060 h1        1 LIG      0.117200
     30 H2         -6.7900    1.0340    0.7990 hc        1 LIG      0.060700
     31 H3         -6.8730    1.8710   -0.7320 hc        1 LIG      0.060700
     32 H4         -5.8040    3.0330    1.8380 hc        1 LIG      0.039700
     33 H5         -7.3570    3.4040    1.1290 hc        1 LIG      0.039700
     34 H6         -5.8870    3.8700    0.3070 hc        1 LIG      0.039700
     35 H7         -2.9210   -0.6300   -2.1580 hn        1 LIG      0.464800
     36 H8         -3.7960   -1.5570    1.1090 ha        1 LIG      0.188000
     37 H9         -2.3030   -1.7560    2.9900 ha        1 LIG      0.165000
     38 H10         1.2140   -2.5060   -0.1730 h4        1 LIG      0.179000
     39 H11         3.9360    1.7380    0.4470 ha        1 LIG      0.179000
     40 H12         3.4190   -3.3220   -1.0540 hn        1 LIG      0.318700
     41 H13         7.2210   -0.3100   -1.1470 h4        1 LIG      0.039100
@<TRIPOS>BOND
     1    1    2 2   
     2    2    3 2   
     3    2    4 1   
     4    2    7 1   
     5    4    5 1   
     6    5    6 1   
     7    7    8 1   
     8    8    9 ar  
     9    8   11 ar  
    10    9   10 1   
    11    9   15 ar  
    12   11   12 ar  
    13   12   13 ar  
    14   13   14 1   
    15   13   15 ar  
    16   15   16 1   
    17   16   17 2   
    18   16   18 1   
    19   18   19 2   
    20   18   20 1   
    21   19   23 1   
    22   20   21 ar  
    23   20   22 ar  
    24   21   26 ar  
    25   22   23 1   
    26   22   24 ar  
    27   24   25 ar  
    28   25   26 ar  
    29   26   27 1   
    30    4   28 1   
    31    4   29 1   
    32    5   30 1   
    33    5   31 1   
    34    6   32 1   
    35    6   33 1   
    36    6   34 1   
    37    7   35 1   
    38   11   36 1   
    39   12   37 1   
    40   19   38 1   
    41   21   39 1   
    42   23   40 1   
    43   25   41 1   
@<TRIPOS>SUBSTRUCTURE
     1 LIG         1 TEMP              0 ****  ****    0 ROOT
