@<TRIPOS>MOLECULE
KAP
   30    29     1     0     0
SMALL
bcc


@<TRIPOS>ATOM
      1 C           0.7390    0.2010   -3.3620 c3        1 LIG     -0.160400
      2 C1         -0.0810   -0.0480   -4.6010 c         1 LIG      0.907600
      3 O           0.4770    0.0800   -5.8140 o         1 LIG     -0.873800
      4 O1         -1.2430   -0.3650   -4.5020 o         1 LIG     -0.873800
      5 C2         -0.1300   -0.0120   -2.1220 c3        1 LIG     -0.063400
      6 C3          0.7030    0.2400   -0.8650 c3        1 LIG     -0.078400
      7 C4         -0.1660    0.0260    0.3750 c3        1 LIG     -0.093400
      8 C5          0.6670    0.2800    1.6320 c3        1 LIG     -0.170400
      9 C6         -0.1890    0.0690    2.8540 c         1 LIG      0.564100
     10 C7          0.3990    0.2580    4.2290 c3        1 LIG      0.008500
     11 C8          0.9790   -1.0690    4.7210 c3        1 LIG     -0.117100
     12 O2         -1.3470   -0.2500    2.7320 o         1 LIG     -0.518100
     13 N          -0.6500    0.7070    5.1530 n4        1 LIG     -0.861600
     14 H           1.1040    1.2070   -3.3730 hc        1 LIG      0.054200
     15 H1          1.5650   -0.4790   -3.3390 hc        1 LIG      0.054200
     16 H2         -0.4960   -1.0180   -2.1110 hc        1 LIG      0.042200
     17 H3         -0.9560    0.6680   -2.1440 hc        1 LIG      0.042200
     18 H4          1.0680    1.2460   -0.8750 hc        1 LIG      0.039200
     19 H5          1.5290   -0.4400   -0.8430 hc        1 LIG      0.039200
     20 H6         -0.5300   -0.9800    0.3860 hc        1 LIG      0.070700
     21 H7         -0.9930    0.7050    0.3520 hc        1 LIG      0.070700
     22 H8          1.0310    1.2860    1.6210 hc        1 LIG      0.072700
     23 H9          1.4940   -0.3990    1.6550 hc        1 LIG      0.072700
     24 H10         1.1750    0.9930    4.1880 hx        1 LIG      0.160700
     25 H11         0.2030   -1.8040    4.7620 hc        1 LIG      0.064367
     26 H12         1.3960   -0.9360    5.6970 hc        1 LIG      0.064367
     27 H13         1.7440   -1.3950    4.0480 hc        1 LIG      0.064367
     28 H14        -1.3900    0.0060    5.1930 hn        1 LIG      0.472133
     29 H15        -1.0370    1.5920    4.8240 hn        1 LIG      0.472133
     30 H16        -0.2520    0.8350    6.0830 hn        1 LIG      0.472133
@<TRIPOS>BOND
     1    1    2 1   
     2    1    5 1   
     3    2    3 1   
     4    2    4 1   
     5    5    6 1   
     6    6    7 1   
     7    7    8 1   
     8    8    9 1   
     9    9   10 1   
    10    9   12 2   
    11   10   11 1   
    12   10   13 1   
    13    1   14 1   
    14    1   15 1   
    15    5   16 1   
    16    5   17 1   
    17    6   18 1   
    18    6   19 1   
    19    7   20 1   
    20    7   21 1   
    21    8   22 1   
    22    8   23 1   
    23   10   24 1   
    24   11   25 1   
    25   11   26 1   
    26   11   27 1   
    27   13   28 1   
    28   13   29 1   
    29   13   30 1   
@<TRIPOS>SUBSTRUCTURE
     1 LIG         1 TEMP              0 ****  ****    0 ROOT
