@<TRIPOS>MOLECULE
1B2
   45    47     1     0     0
SMALL
bcc


@<TRIPOS>ATOM
      1 O           1.8000   -0.9360   -0.2920 O.3       1 LIG     -0.576100
      2 C           2.8130   -0.5380    0.2440 C.        1 LIG      0.689100
      3 C1          3.6490   -1.4810    1.0700 C.3       1 LIG      0.017500
      4 C2          4.8420   -1.9630    0.2420 C.3       1 LIG      0.137100
      5 C3          5.6210   -3.0140    1.0350 C.3       1 LIG     -0.147100
      6 O1          4.3730   -2.5380   -0.9790 O.h       1 LIG     -0.625800
      7 N           2.8340   -2.6350    1.4720 N.4       1 LIG     -0.818600
      8 N1          3.1930    0.7470    0.0970 N.        1 LIG     -0.611300
      9 S           2.2780    1.7820   -0.8170 S.y       1 LIG      1.521900
     10 O2          2.9160    3.0490   -0.7480 O.3       1 LIG     -0.615300
     11 O3          2.0130    1.1100   -2.0400 O.3       1 LIG     -0.615300
     12 C4          0.7260    1.9620   -0.0020 C.a       1 LIG     -0.450500
     13 C5          0.5510    2.9630    0.9370 C.a       1 LIG     -0.013000
     14 C6         -0.6650    3.1100    1.5800 C.a       1 LIG     -0.151000
     15 C7         -1.7110    2.2590    1.2880 C.a       1 LIG     -0.038000
     16 C8         -1.5410    1.2490    0.3420 C.p       1 LIG     -0.039000
     17 C9         -0.3150    1.1080   -0.3060 C.a       1 LIG      0.005000
     18 C10        -2.6610    0.3300    0.0240 C.p       1 LIG     -0.084000
     19 C11        -3.8690    0.4900    0.6680 C.a       1 LIG     -0.038000
     20 C12        -4.9350   -0.3790    0.3610 C.a       1 LIG     -0.145000
     21 C13        -6.2420   -0.5060    0.7970 C.c       1 LIG     -0.138100
     22 N2         -6.7960   -1.5340    0.1400 N.a       1 LIG      0.062800
     23 N3         -5.8640   -2.0980   -0.7380 N.c       1 LIG     -0.264400
     24 C14        -4.7260   -1.4360   -0.6410 C.a       1 LIG     -0.075000
     25 C15        -3.4620   -1.5440   -1.2630 C.a       1 LIG     -0.081000
     26 C16        -2.4710   -0.6840   -0.9330 C.a       1 LIG     -0.123000
     27 H           4.0020   -0.9730    1.9430 H         1 LIG      0.124700
     28 H1          5.4830   -1.1340    0.0230 H         1 LIG      0.091700
     29 H2          4.9800   -3.8420    1.2540 H         1 LIG      0.068033
     30 H3          5.9720   -2.5830    1.9490 H         1 LIG      0.068033
     31 H4          6.4550   -3.3520    0.4560 H         1 LIG      0.068033
     32 H5          3.7920   -3.2890   -0.7800 H         1 LIG      0.461000
     33 H6          2.4970   -3.1200    0.6400 H         1 LIG      0.475467
     34 H7          2.0390   -2.3140    2.0240 H         1 LIG      0.475467
     35 H8          3.4000   -3.2730    2.0310 H         1 LIG      0.475467
     36 H9          4.0140    1.0700    0.5330 H         1 LIG      0.332500
     37 H10         1.3300    3.6020    1.1590 H         1 LIG      0.162000
     38 H11        -0.7900    3.8580    2.2800 H         1 LIG      0.157000
     39 H12        -2.6170    2.3700    1.7690 H         1 LIG      0.154000
     40 H13        -0.1860    0.3660   -1.0120 H         1 LIG      0.170000
     41 H14        -3.9920    1.2380    1.3680 H         1 LIG      0.138000
     42 H15        -6.7070    0.0860    1.5030 H         1 LIG      0.191000
     43 H16        -7.7220   -1.8460    0.2580 H         1 LIG      0.333700
     44 H17        -3.2950   -2.2780   -1.9680 H         1 LIG      0.146000
     45 H18        -1.5520   -0.7740   -1.3950 H         1 LIG      0.124000
@<TRIPOS>BOND
     1    1    2 2   
     2    2    8 1   
     3    2    3 1   
     4    3    7 1   
     5    4    6 1   
     6    4    3 1   
     7    5    4 1   
     8    9   10 2   
     9    9   11 2   
    10    9    8 1   
    11   12    9 1   
    12   13   12 ar  
    13   14   13 ar  
    14   15   14 ar  
    15   15   16 ar  
    16   16   17 ar  
    17   17   12 ar  
    18   18   26 ar  
    19   18   16 1   
    20   19   18 ar  
    21   20   24 ar  
    22   20   19 ar  
    23   21   20 2   
    24   22   21 1   
    25   22   23 1   
    26   23   24 2   
    27   24   25 ar  
    28   25   26 ar  
    29    3   27 1   
    30    4   28 1   
    31    5   29 1   
    32    5   30 1   
    33    5   31 1   
    34    6   32 1   
    35    7   33 1   
    36    7   34 1   
    37    7   35 1   
    38    8   36 1   
    39   13   37 1   
    40   14   38 1   
    41   15   39 1   
    42   17   40 1   
    43   19   41 1   
    44   21   42 1   
    45   22   43 1   
    46   25   44 1   
    47   26   45 1   
@<TRIPOS>SUBSTRUCTURE
     1 LIG         1 TEMP              0 ****  ****    0 ROOT
