@<TRIPOS>MOLECULE
DHY
   19    19     1     0     0
SMALL
bcc


@<TRIPOS>ATOM
      1 C           0.1940   -0.6140    0.4500 ca        1 LIG     -0.014300
      2 C1         -0.9270   -0.4610   -0.3420 ca        1 LIG     -0.162000
      3 C2         -0.7920   -0.0770   -1.6670 ca        1 LIG      0.030100
      4 C3          0.4750    0.1430   -2.1980 ca        1 LIG      0.066100
      5 C4          1.5950   -0.0170   -1.3990 ca        1 LIG     -0.146000
      6 C5          1.4530   -0.3960   -0.0770 ca        1 LIG     -0.152000
      7 C6          0.0440   -1.0270    1.8920 c3        1 LIG     -0.173100
      8 C7         -0.0810    0.2000    2.7560 c         1 LIG      0.917600
      9 O          -0.0530    1.2980    2.2520 o         1 LIG     -0.841800
     10 O1         -0.2250    0.0750    4.0840 o         1 LIG     -0.841800
     11 O2         -1.8940    0.0790   -2.4470 oh        1 LIG     -0.542100
     12 O3          0.6130    0.5150   -3.4980 oh        1 LIG     -0.519100
     13 H          -1.8650   -0.6320    0.0530 ha        1 LIG      0.198000
     14 H1          2.5360    0.1470   -1.7900 ha        1 LIG      0.128000
     15 H2          2.2880   -0.5160    0.5170 ha        1 LIG      0.124000
     16 H3          0.9030   -1.5890    2.1930 hc        1 LIG      0.039200
     17 H4         -0.8330   -1.6300    2.0010 hc        1 LIG      0.039200
     18 H5         -2.7470   -0.0700   -2.0880 ho        1 LIG      0.428000
     19 H6         -0.1450    0.6230   -4.0370 ho        1 LIG      0.422000
@<TRIPOS>BOND
     1    1    2 ar  
     2    1    6 ar  
     3    1    7 1   
     4    2    3 ar  
     5    3    4 ar  
     6    3   11 1   
     7    4    5 ar  
     8    4   12 1   
     9    5    6 ar  
    10    7    8 1   
    11    8    9 1   
    12    8   10 1   
    13    2   13 1   
    14    5   14 1   
    15    6   15 1   
    16    7   16 1   
    17    7   17 1   
    18   11   18 1   
    19   12   19 1   
@<TRIPOS>SUBSTRUCTURE
     1 LIG         1 TEMP              0 ****  ****    0 ROOT
