@<TRIPOS>MOLECULE
NFX
   42    45     1     0     0
SMALL
bcc


@<TRIPOS>ATOM
      1 F          -2.5490    2.2900    0.0130 F.        1 LIG     -0.190900
      2 Cl         -0.8450   -2.4960    0.2550 C.l       1 LIG     -0.070400
      3 O           2.4760    2.8500   -0.0730 O.3       1 LIG     -0.527100
      4 O1          5.6580    0.3060    0.0480 O.3       1 LIG     -0.792800
      5 O2          5.0430    2.4380   -0.0660 O.3       1 LIG     -0.792800
      6 N          -2.9700   -0.4340    0.1650 N.h       1 LIG     -0.595000
      7 N1          1.7910   -1.1140    0.1500 N.a       1 LIG     -0.482800
      8 C          -5.1960    0.1460   -0.6130 C.3       1 LIG      0.078500
      9 C1         -5.2060   -0.1120    0.9120 C.3       1 LIG     -0.124400
     10 C2         -3.7310   -0.0540   -1.0440 C.3       1 LIG      0.158800
     11 C3         -3.7290    0.1250    1.3130 C.3       1 LIG      0.162800
     12 N2         -5.6290    1.5200   -0.9000 N.4       1 LIG     -0.852600
     13 C4          1.5560   -2.5580    0.2320 C.x       1 LIG      0.143500
     14 C5          1.4460   -3.3310   -1.0840 C.x       1 LIG     -0.128900
     15 C6          2.6920   -3.4840   -0.2090 C.x       1 LIG     -0.128900
     16 C7         -1.6760    0.0810    0.1230 C.a       1 LIG      0.071600
     17 C8          0.7010   -0.2690    0.1160 C.a       1 LIG      0.232600
     18 C9         -0.5910   -0.7810    0.1580 C.a       1 LIG     -0.016600
     19 C10         0.8850    1.1240    0.0380 C.a       1 LIG     -0.205600
     20 C11        -1.4820    1.4630    0.0460 C.a       1 LIG     -0.050100
     21 C12         3.0540   -0.6690    0.1180 C.c       1 LIG      0.045000
     22 C13        -0.2190    1.9800    0.0040 C.a       1 LIG     -0.043000
     23 C14         3.3580    0.6740    0.0420 C.d       1 LIG     -0.243400
     24 C15         2.2590    1.6520   -0.0050 C.        1 LIG      0.598900
     25 C16         4.7570    1.1220    0.0090 C.        1 LIG      0.935800
     26 H          -5.8620   -0.5080   -1.1360 H         1 LIG      0.105700
     27 H1         -5.5080   -1.1150    1.1310 H         1 LIG      0.081200
     28 H2         -5.8930    0.5140    1.4420 H         1 LIG      0.081200
     29 H3         -3.6670   -0.8310   -1.7770 H         1 LIG      0.089700
     30 H4         -3.3360    0.8410   -1.4770 H         1 LIG      0.089700
     31 H5         -3.5270    1.1690    1.4340 H         1 LIG      0.089200
     32 H6         -3.4700   -0.3290    2.2470 H         1 LIG      0.089200
     33 H7         -5.0160    2.1770   -0.4170 H         1 LIG      0.461800
     34 H8         -6.5880    1.6490   -0.5770 H         1 LIG      0.461800
     35 H9         -5.5830    1.6880   -1.9050 H         1 LIG      0.461800
     36 H10         0.9510   -2.4670    1.1100 H         1 LIG      0.098700
     37 H11         1.5080   -2.8110   -2.0170 H         1 LIG      0.084200
     38 H12         0.7320   -4.0060   -1.5080 H         1 LIG      0.084200
     39 H13         2.8690   -4.4000    0.3140 H         1 LIG      0.084200
     40 H14         3.7440   -3.3690   -0.3640 H         1 LIG      0.084200
     41 H15         3.8250   -1.3540    0.1510 H         1 LIG      0.191000
     42 H16        -0.0800    3.0010   -0.0530 H         1 LIG      0.183000
@<TRIPOS>BOND
     1    1   20 1   
     2    2   18 1   
     3    3   24 2   
     4    4   25 1   
     5    5   25 1   
     6    6   10 1   
     7    6   11 1   
     8    6   16 1   
     9    7   13 1   
    10    7   17 1   
    11    7   21 1   
    12    8    9 1   
    13    8   10 1   
    14    8   12 1   
    15    9   11 1   
    16   13   14 1   
    17   13   15 1   
    18   14   15 1   
    19   16   18 ar  
    20   16   20 ar  
    21   17   18 ar  
    22   17   19 ar  
    23   19   22 ar  
    24   19   24 1   
    25   20   22 ar  
    26   21   23 2   
    27   23   24 1   
    28   23   25 1   
    29    8   26 1   
    30    9   27 1   
    31    9   28 1   
    32   10   29 1   
    33   10   30 1   
    34   11   31 1   
    35   11   32 1   
    36   12   33 1   
    37   12   34 1   
    38   12   35 1   
    39   13   36 1   
    40   14   37 1   
    41   14   38 1   
    42   15   39 1   
    43   15   40 1   
    44   21   41 1   
    45   22   42 1   
@<TRIPOS>SUBSTRUCTURE
     1 LIG         1 TEMP              0 ****  ****    0 ROOT
