@<TRIPOS>MOLECULE
51G
   81    83     1     0     0
SMALL
bcc


@<TRIPOS>ATOM
      1 O           4.9140   -1.4770    1.1330 oh        1 LIG     -0.656800
      2 C           4.6680   -0.8580   -0.1310 c3        1 LIG      0.116100
      3 C1          4.8910    0.6530   -0.0130 c3        1 LIG      0.106500
      4 N           6.2970    0.9170    0.3210 n4        1 LIG     -0.756000
      5 C2          6.5180    0.8350    1.7710 c3        1 LIG      0.075100
      6 C3          4.5490    1.3150   -1.3510 c3        1 LIG      0.123800
      7 C4          4.6940    2.8320   -1.2230 c3        1 LIG     -0.169100
      8 O1          5.4370    0.8340   -2.3620 oh        1 LIG     -0.616800
      9 C5          3.1070    0.9690   -1.7290 c3        1 LIG      0.099400
     10 O2          2.9600   -0.4510   -1.7920 os        1 LIG     -0.415600
     11 C6          3.2200   -1.1200   -0.5560 c3        1 LIG      0.334900
     12 O3          2.3320   -0.6280    0.4490 os        1 LIG     -0.465600
     13 C7          0.9830   -1.0770    0.3030 c3        1 LIG      0.109100
     14 C8          0.7960   -2.3880    1.0680 c3        1 LIG      0.118500
     15 N1          1.7110   -3.4040    0.5290 n4        1 LIG     -0.840600
     16 C9         -0.6480   -2.8690    0.9110 c3        1 LIG     -0.138400
     17 C10        -1.6010   -1.8110    1.4720 c3        1 LIG      0.122500
     18 N2         -2.9870   -2.2730    1.3210 n4        1 LIG     -0.835600
     19 C11         0.0300   -0.0190    0.8630 c3        1 LIG      0.114100
     20 O4          0.2050    1.2060    0.1490 oh        1 LIG     -0.643800
     21 C12        -1.4140   -0.5000    0.7070 c3        1 LIG      0.130100
     22 O5         -2.3040    0.4880    1.2310 os        1 LIG     -0.475600
     23 C13        -2.6920    1.4830    0.2810 c3        1 LIG      0.349900
     24 C14        -3.3910    2.6360    1.0060 c3        1 LIG      0.089500
     25 N3         -2.4920    3.1900    2.0270 n4        1 LIG     -0.828600
     26 C15        -4.6650    2.1110    1.6760 c3        1 LIG     -0.104400
     27 C16        -5.5590    1.4660    0.6130 c3        1 LIG     -0.123400
     28 O6         -3.5890    0.9080   -0.6720 os        1 LIG     -0.457600
     29 C17        -4.7760    0.3580   -0.0970 c3        1 LIG      0.137100
     30 C18        -5.6420   -0.2510   -1.2020 c3        1 LIG      0.101500
     31 C19        -5.9150    0.8040   -2.2760 c3        1 LIG     -0.132100
     32 N4         -4.9390   -1.3920   -1.8030 n4        1 LIG     -0.759000
     33 C20        -5.8880   -2.3390   -2.4030 c3        1 LIG      0.071100
     34 H           5.8310   -1.3110    1.4010 ho        1 LIG      0.461000
     35 H1          5.3370   -1.2650   -0.8600 h1        1 LIG      0.129700
     36 H2          4.2640    1.0520    0.7570 hx        1 LIG      0.125700
     37 H3          6.5470    1.8520   -0.0020 hn        1 LIG      0.478300
     38 H4          6.8770    0.2140   -0.1360 hn        1 LIG      0.478300
     39 H5          5.9150    1.5680    2.2660 hx        1 LIG      0.120367
     40 H6          7.5500    1.0180    1.9850 hx        1 LIG      0.120367
     41 H7          6.2500   -0.1410    2.1180 hx        1 LIG      0.120367
     42 H8          5.7020    3.0730   -0.9590 hc        1 LIG      0.092367
     43 H9          4.0310    3.1910   -0.4640 hc        1 LIG      0.092367
     44 H10         4.4500    3.2940   -2.1570 hc        1 LIG      0.092367
     45 H11         6.3510    1.0540   -2.1210 ho        1 LIG      0.475000
     46 H12         2.8760    1.3940   -2.6830 h1        1 LIG      0.097700
     47 H13         2.4400    1.3650   -0.9920 h1        1 LIG      0.097700
     48 H14         3.0680   -2.1720   -0.6800 h2        1 LIG      0.113700
     49 H15         0.7700   -1.2360   -0.7340 h1        1 LIG      0.093700
     50 H16         1.0090   -2.2290    2.1050 hx        1 LIG      0.141700
     51 H17         1.5080   -3.5550   -0.4590 hn        1 LIG      0.489467
     52 H18         1.5870   -4.2790    1.0390 hn        1 LIG      0.489467
     53 H19         2.6740   -3.0840    0.6330 hn        1 LIG      0.489467
     54 H20        -0.7790   -3.7870    1.4460 hc        1 LIG      0.111200
     55 H21        -0.8610   -3.0270   -0.1260 hc        1 LIG      0.111200
     56 H22        -1.3890   -1.6520    2.5090 hx        1 LIG      0.141700
     57 H23        -3.1890   -2.4240    0.3330 hn        1 LIG      0.485800
     58 H24        -3.6230   -1.5680    1.6940 hn        1 LIG      0.485800
     59 H25        -3.1110   -3.1470    1.8310 hn        1 LIG      0.485800
     60 H26         0.2430    0.1400    1.9000 h1        1 LIG      0.083700
     61 H27         0.0130    1.0630   -0.7910 ho        1 LIG      0.479000
     62 H28        -1.6270   -0.6590   -0.3300 h1        1 LIG      0.100700
     63 H29        -1.8230    1.8520   -0.2230 h2        1 LIG      0.122700
     64 H30        -3.6440    3.4020    0.3030 hx        1 LIG      0.144700
     65 H31        -2.2490    2.4610    2.6980 hn        1 LIG      0.479133
     66 H32        -2.9590    3.9570    2.5110 hn        1 LIG      0.479133
     67 H33        -1.6430    3.5370    1.5800 hn        1 LIG      0.479133
     68 H34        -5.1870    2.9220    2.1390 hc        1 LIG      0.105700
     69 H35        -4.4090    1.3870    2.4210 hc        1 LIG      0.105700
     70 H36        -5.8590    2.2060   -0.1000 hc        1 LIG      0.118200
     71 H37        -6.4290    1.0510    1.0780 hc        1 LIG      0.118200
     72 H38        -4.5120   -0.4010    0.6090 h1        1 LIG      0.082700
     73 H39        -6.5700   -0.5840   -0.7850 hx        1 LIG      0.144700
     74 H40        -4.9870    1.1370   -2.6930 hc        1 LIG      0.084367
     75 H41        -6.4280    1.6350   -1.8380 hc        1 LIG      0.084367
     76 H42        -6.5210    0.3780   -3.0480 hc        1 LIG      0.084367
     77 H43        -4.4020   -1.8710   -1.0800 hn        1 LIG      0.452300
     78 H44        -4.3210   -1.0430   -2.5360 hn        1 LIG      0.452300
     79 H45        -6.5440   -2.7140   -1.6460 hx        1 LIG      0.132367
     80 H46        -5.3500   -3.1520   -2.8440 hx        1 LIG      0.132367
     81 H47        -6.4610   -1.8400   -3.1570 hx        1 LIG      0.132367
@<TRIPOS>BOND
     1    2    3 1   
     2    2    1 1   
     3    3    4 1   
     4    4    5 1   
     5    6    7 1   
     6    6    3 1   
     7    8    6 1   
     8    9    6 1   
     9   10    9 1   
    10   10   11 1   
    11   11    2 1   
    12   11   12 1   
    13   12   13 1   
    14   13   14 1   
    15   14   16 1   
    16   14   15 1   
    17   17   18 1   
    18   17   16 1   
    19   19   21 1   
    20   19   13 1   
    21   20   19 1   
    22   21   17 1   
    23   22   21 1   
    24   23   28 1   
    25   23   22 1   
    26   24   26 1   
    27   24   23 1   
    28   25   24 1   
    29   26   27 1   
    30   27   29 1   
    31   28   29 1   
    32   29   30 1   
    33   30   32 1   
    34   31   30 1   
    35   32   33 1   
    36    1   34 1   
    37    2   35 1   
    38    3   36 1   
    39    4   37 1   
    40    4   38 1   
    41    5   39 1   
    42    5   40 1   
    43    5   41 1   
    44    7   42 1   
    45    7   43 1   
    46    7   44 1   
    47    8   45 1   
    48    9   46 1   
    49    9   47 1   
    50   11   48 1   
    51   13   49 1   
    52   14   50 1   
    53   15   51 1   
    54   15   52 1   
    55   15   53 1   
    56   16   54 1   
    57   16   55 1   
    58   17   56 1   
    59   18   57 1   
    60   18   58 1   
    61   18   59 1   
    62   19   60 1   
    63   20   61 1   
    64   21   62 1   
    65   23   63 1   
    66   24   64 1   
    67   25   65 1   
    68   25   66 1   
    69   25   67 1   
    70   26   68 1   
    71   26   69 1   
    72   27   70 1   
    73   27   71 1   
    74   29   72 1   
    75   30   73 1   
    76   31   74 1   
    77   31   75 1   
    78   31   76 1   
    79   32   77 1   
    80   32   78 1   
    81   33   79 1   
    82   33   80 1   
    83   33   81 1   
@<TRIPOS>SUBSTRUCTURE
     1 LIG         1 TEMP              0 ****  ****    0 ROOT
