@<TRIPOS>MOLECULE
1PG
   41    40     1     0     0
SMALL
bcc


@<TRIPOS>ATOM
      1 C          -1.5200   -0.1150   -5.1820 C.3       1 LIG      0.123400
      2 C1         -1.0610    1.4520   -6.7940 C.3       1 LIG      0.117700
      3 O          -0.4740    0.4250   -5.9920 O.2       1 LIG     -0.425600
      4 O1          0.0680   -0.6910   -3.4550 O.2       1 LIG     -0.429600
      5 C2         -0.9560   -1.2260   -4.2950 C.3       1 LIG      0.127400
      6 C3          0.5530   -1.7710   -2.6550 C.3       1 LIG      0.127400
      7 C4          1.6580   -1.2630   -1.7270 C.3       1 LIG      0.127400
      8 O2          1.1350   -0.2390   -0.8790 O.2       1 LIG     -0.429600
      9 C5          2.2090    0.1910   -0.0410 C.3       1 LIG      0.127400
     10 C6          1.7130    1.2930    0.8960 C.3       1 LIG      0.127400
     11 O3          0.6510    0.7860    1.7070 O.2       1 LIG     -0.428600
     12 C7          0.2330    1.8560    2.5570 C.3       1 LIG      0.127400
     13 C8         -0.9070    1.3780    3.4560 C.3       1 LIG      0.128400
     14 O4         -0.4570    0.2820    4.2560 O.2       1 LIG     -0.438600
     15 C9         -1.5620   -0.1170    5.0690 C.3       1 LIG      0.087400
     16 C10        -1.1440   -1.2920    5.9540 C.3       1 LIG      0.131400
     17 O5         -0.0560   -0.8950    6.7910 O.h       1 LIG     -0.600800
     18 H          -2.2870   -0.5160   -5.8110 H         1 LIG      0.042700
     19 H1         -1.9300    0.6580   -4.5670 H         1 LIG      0.042700
     20 H2         -0.3110    1.8880   -7.4210 H         1 LIG      0.032700
     21 H3         -1.4780    2.2060   -6.1590 H         1 LIG      0.032700
     22 H4         -1.8340    1.0310   -7.4030 H         1 LIG      0.032700
     23 H5         -0.5450   -1.9990   -4.9100 H         1 LIG      0.043200
     24 H6         -1.7390   -1.6310   -3.6890 H         1 LIG      0.043200
     25 H7          0.9450   -2.5370   -3.2910 H         1 LIG      0.043700
     26 H8         -0.2490   -2.1690   -2.0690 H         1 LIG      0.043700
     27 H9          2.4610   -0.8660   -2.3120 H         1 LIG      0.043700
     28 H10         2.0200   -2.0720   -1.1270 H         1 LIG      0.043700
     29 H11         3.0050    0.5700   -0.6470 H         1 LIG      0.043700
     30 H12         2.5640   -0.6360    0.5370 H         1 LIG      0.043700
     31 H13         1.3570    2.1200    0.3170 H         1 LIG      0.044200
     32 H14         2.5170    1.6170    1.5230 H         1 LIG      0.044200
     33 H15        -0.1050    2.6760    1.9580 H         1 LIG      0.043200
     34 H16         1.0560    2.1720    3.1630 H         1 LIG      0.043200
     35 H17        -1.7300    1.0620    2.8500 H         1 LIG      0.045200
     36 H18        -1.2180    2.1790    4.0930 H         1 LIG      0.045200
     37 H19        -2.3770   -0.4140    4.4430 H         1 LIG      0.039200
     38 H20        -1.8670    0.7030    5.6850 H         1 LIG      0.039200
     39 H21        -0.8390   -2.1120    5.3380 H         1 LIG      0.053200
     40 H22        -1.9710   -1.5920    6.5630 H         1 LIG      0.053200
     41 H23         0.6940   -0.6230    6.2390 H         1 LIG      0.412000
@<TRIPOS>BOND
     1    1    3 1   
     2    1    5 1   
     3    2    3 1   
     4    4    5 1   
     5    4    6 1   
     6    6    7 1   
     7    7    8 1   
     8    8    9 1   
     9    9   10 1   
    10   10   11 1   
    11   11   12 1   
    12   12   13 1   
    13   13   14 1   
    14   14   15 1   
    15   15   16 1   
    16   16   17 1   
    17    1   18 1   
    18    1   19 1   
    19    2   20 1   
    20    2   21 1   
    21    2   22 1   
    22    5   23 1   
    23    5   24 1   
    24    6   25 1   
    25    6   26 1   
    26    7   27 1   
    27    7   28 1   
    28    9   29 1   
    29    9   30 1   
    30   10   31 1   
    31   10   32 1   
    32   12   33 1   
    33   12   34 1   
    34   13   35 1   
    35   13   36 1   
    36   15   37 1   
    37   15   38 1   
    38   16   39 1   
    39   16   40 1   
    40   17   41 1   
@<TRIPOS>SUBSTRUCTURE
     1 LIG         1 TEMP              0 ****  ****    0 ROOT
