@<TRIPOS>MOLECULE
05N
   21    21     1     0     0
SMALL
bcc


@<TRIPOS>ATOM
      1 N          -0.0170    1.5660   -0.3660 n4        1 LIG     -0.760000
      2 CA         -0.4680    0.1540   -0.4720 c3        1 LIG     -0.066500
      3 C           0.4870   -0.6300    0.4530 c3        1 LIG     -0.090700
      4 C1          1.7590    0.2380    0.5450 c3        1 LIG      0.131100
      5 C2         -1.8910    0.0200    0.0060 c         1 LIG      0.937600
      6 O           2.8860   -0.4780    0.0360 oh        1 LIG     -0.581800
      7 C3          1.4650    1.4740   -0.3330 c3        1 LIG      0.067800
      8 C4          0.8170   -1.9940   -0.1560 c3        1 LIG     -0.095100
      9 O1         -2.6160   -1.0560   -0.3380 o         1 LIG     -0.757800
     10 OXT        -2.3790    0.8810    0.6990 o         1 LIG     -0.757800
     11 H1         -0.3720    1.9960    0.4880 hn        1 LIG      0.456300
     12 H2         -0.3550    2.1430   -1.1360 hn        1 LIG      0.456300
     13 HA         -0.4460   -0.2060   -1.4790 hx        1 LIG      0.089700
     14 H           0.0550   -0.8140    1.4150 hc        1 LIG      0.105700
     15 H3          1.9910    0.5080    1.5540 h1        1 LIG      0.105700
     16 H4          2.7140   -0.7420   -0.8810 ho        1 LIG      0.409000
     17 H5          1.8890    2.3550    0.1010 hx        1 LIG      0.094700
     18 H6          1.8880    1.3860   -1.3120 hx        1 LIG      0.094700
     19 H7          1.2540   -1.8570   -1.1230 hc        1 LIG      0.053700
     20 H8         -0.0800   -2.5700   -0.2480 hc        1 LIG      0.053700
     21 H9          1.5080   -2.5100    0.4770 hc        1 LIG      0.053700
@<TRIPOS>BOND
     1    1    2 1   
     2    2    3 1   
     3    2    5 1   
     4    3    8 1   
     5    4    3 1   
     6    5    9 1   
     7    5   10 1   
     8    6    4 1   
     9    7    1 1   
    10    7    4 1   
    11    1   11 1   
    12    1   12 1   
    13    2   13 1   
    14    3   14 1   
    15    4   15 1   
    16    6   16 1   
    17    7   17 1   
    18    7   18 1   
    19    8   19 1   
    20    8   20 1   
    21    8   21 1   
@<TRIPOS>SUBSTRUCTURE
     1 LIG         1 TEMP              0 ****  ****    0 ROOT
