@<TRIPOS>MOLECULE
GAB
   16    16     1     0     0
SMALL
bcc


@<TRIPOS>ATOM
      1 C          -0.3200    0.0000   -1.9300 C.        1 LIG      0.906200
      2 O          -1.5020    0.0000   -2.2100 O.3       1 LIG     -0.832800
      3 O1          0.6030    0.0000   -2.9110 O.3       1 LIG     -0.832800
      4 C1          0.1040    0.0000   -0.5150 C.a       1 LIG     -0.101600
      5 C2         -0.8500   -0.0040    0.5010 C.a       1 LIG     -0.150000
      6 C3         -0.4440    0.0000    1.8270 C.a       1 LIG      0.065600
      7 C4          0.9100    0.0000    2.1380 C.a       1 LIG     -0.197000
      8 C5          1.8560   -0.0000    1.1310 C.a       1 LIG     -0.141000
      9 C6          1.4620    0.0000   -0.1910 C.a       1 LIG     -0.132000
     10 N          -1.3960    0.0010    2.8490 N.h       1 LIG     -0.798200
     11 H          -1.8550   -0.0100    0.2670 H         1 LIG      0.151000
     12 H1          1.2100    0.0000    3.1250 H         1 LIG      0.103000
     13 H2          2.8600   -0.0000    1.3690 H         1 LIG      0.102000
     14 H3          2.1710    0.0000   -0.9410 H         1 LIG      0.149000
     15 H4         -2.3550    0.0010    2.6280 H         1 LIG      0.353300
     16 H5         -1.1080    0.0020    3.7900 H         1 LIG      0.353300
@<TRIPOS>BOND
     1    1    2 1   
     2    1    3 1   
     3    1    4 1   
     4    4    5 ar  
     5    4    9 ar  
     6    5    6 ar  
     7    6    7 ar  
     8    6   10 1   
     9    7    8 ar  
    10    8    9 ar  
    11    5   11 1   
    12    7   12 1   
    13    8   13 1   
    14    9   14 1   
    15   10   15 1   
    16   10   16 1   
@<TRIPOS>SUBSTRUCTURE
     1 LIG         1 TEMP              0 ****  ****    0 ROOT
