@<TRIPOS>MOLECULE
M7M
   51    53     1     0     0
SMALL
bcc


@<TRIPOS>ATOM
      1 O          -7.0670    1.0890   -1.4300 O.3       1 LIG     -0.942833
      2 O1         -5.9890    3.3300   -0.5760 O.3       1 LIG     -0.942833
      3 P          -6.1870    1.7630   -0.2620 P.5       1 LIG      1.442900
      4 O2         -6.8830    1.6040    1.0340 O.3       1 LIG     -0.942833
      5 O3          5.9690    1.6850    2.2730 O.3       1 LIG     -0.591100
      6 C           3.9630    0.1840    3.9410 C.3       1 LIG      0.102100
      7 O4         -4.7490    1.0440   -0.1910 O.2       1 LIG     -0.784800
      8 N           5.7760    1.7020    0.0580 N.c       1 LIG     -0.737100
      9 C1          5.3560    1.3290    1.2760 C.        1 LIG      0.732700
     10 C2          4.2020    0.5220    1.4020 C.d       1 LIG     -0.127200
     11 N1          3.5580   -0.0010    2.5450 N.h       1 LIG     -0.558400
     12 C3          2.4020   -0.7670    2.0590 C.3       1 LIG      0.371000
     13 O5         -4.1950   -0.3380    1.9760 O.3       1 LIG     -0.941500
     14 P1         -4.2350   -0.3760    0.3670 P.5       1 LIG      1.597800
     15 O6         -5.1570   -1.4440   -0.0790 O.3       1 LIG     -0.941500
     16 C4          5.1280    1.3270   -1.0240 C.d       1 LIG      0.775100
     17 N2          4.0150    0.5520   -0.9480 N.a       1 LIG     -0.661000
     18 C5          3.5380    0.1390    0.2750 C.c       1 LIG      0.248000
     19 N3          2.4440   -0.6390    0.5960 N.h       1 LIG     -0.641400
     20 C6          1.4960   -1.2310   -0.3510 C.3       1 LIG      0.358300
     21 O7          0.1430   -0.8640   -0.0040 O.2       1 LIG     -0.479600
     22 C7         -0.6950   -1.8510   -0.6440 C.3       1 LIG      0.066100
     23 C8         -2.0670   -1.9020    0.0300 C.3       1 LIG      0.223400
     24 O8         -2.7570   -0.6720   -0.2000 O.2       1 LIG     -0.565200
     25 N4          5.5850    1.7260   -2.2540 N.h       1 LIG     -0.697600
     26 C9          6.7840    2.5620   -2.3530 C.3       1 LIG      0.161600
     27 C10         1.5260   -2.7720   -0.2500 C.3       1 LIG      0.119100
     28 C11         0.0510   -3.1900   -0.4470 C.3       1 LIG      0.081100
     29 C12         4.8750    1.3170   -3.4680 C.3       1 LIG      0.161600
     30 O9          2.3450   -3.3260   -1.2810 O.h       1 LIG     -0.631800
     31 O10        -0.0850   -4.0140   -1.6060 O.h       1 LIG     -0.672800
     32 H           4.8440    0.7900    3.9790 H         1 LIG      0.076367
     33 H1          4.1660   -0.7690    4.3830 H         1 LIG      0.076367
     34 H2          3.1750    0.6660    4.4800 H         1 LIG      0.076367
     35 H3          1.4920   -0.3590    2.4460 H         1 LIG      0.104200
     36 H4          2.4390   -1.7890    2.3730 H         1 LIG      0.104200
     37 H5          3.5470    0.2840   -1.7720 H         1 LIG      0.460800
     38 H6          1.7720   -0.8840   -1.3250 H         1 LIG      0.053700
     39 H7         -0.8650   -1.6300   -1.6770 H         1 LIG      0.052700
     40 H8         -1.9420   -2.0490    1.0820 H         1 LIG      0.007200
     41 H9         -2.6350   -2.7110   -0.3790 H         1 LIG      0.007200
     42 H10         7.1640    2.7580   -1.3720 H         1 LIG      0.039200
     43 H11         6.5360    3.4860   -2.8310 H         1 LIG      0.039200
     44 H12         7.5280    2.0520   -2.9280 H         1 LIG      0.039200
     45 H13         1.9320   -3.1160    0.6780 H         1 LIG      0.073700
     46 H14        -0.3310   -3.7580    0.3760 H         1 LIG      0.166700
     47 H15         4.0310    0.7150   -3.2020 H         1 LIG      0.039200
     48 H16         5.5340    0.7510   -4.0930 H         1 LIG      0.039200
     49 H17         4.5410    2.1860   -3.9960 H         1 LIG      0.039200
     50 H18         2.0130   -3.0400   -2.1460 H         1 LIG      0.424000
     51 H19         0.2500   -3.5380   -2.3820 H         1 LIG      0.501000
@<TRIPOS>BOND
     1    1    3 1   
     2    3    2 1   
     3    3    7 1   
     4    4    3 1   
     5    8    9 1   
     6    9    5 2   
     7    9   10 1   
     8   10   11 1   
     9   11    6 1   
    10   12   11 1   
    11   14    7 1   
    12   14   13 1   
    13   14   15 1   
    14   16    8 2   
    15   16   17 1   
    16   17   18 1   
    17   18   10 2   
    18   18   19 1   
    19   19   12 1   
    20   20   19 1   
    21   20   21 1   
    22   21   22 1   
    23   22   23 1   
    24   23   24 1   
    25   24   14 1   
    26   25   16 1   
    27   26   25 1   
    28   27   20 1   
    29   27   28 1   
    30   28   22 1   
    31   29   25 1   
    32   30   27 1   
    33   31   28 1   
    34    6   32 1   
    35    6   33 1   
    36    6   34 1   
    37   12   35 1   
    38   12   36 1   
    39   17   37 1   
    40   20   38 1   
    41   22   39 1   
    42   23   40 1   
    43   23   41 1   
    44   26   42 1   
    45   26   43 1   
    46   26   44 1   
    47   27   45 1   
    48   28   46 1   
    49   29   47 1   
    50   29   48 1   
    51   29   49 1   
    52   30   50 1   
    53   31   51 1   
@<TRIPOS>SUBSTRUCTURE
     1 LIG         1 TEMP              0 ****  ****    0 ROOT
