@<TRIPOS>MOLECULE
B2G
   45    46     1     0     0
SMALL
bcc


@<TRIPOS>ATOM
      1 C          -0.1630   -0.0510   -3.8120 c3        1 LIG      0.321900
      2 C1         -1.1590    0.6830   -2.9120 c3        1 LIG      0.044100
      3 C2         -0.3860    1.4400   -1.8260 c3        1 LIG      0.090100
      4 C3          0.5400    0.4540   -1.1060 c3        1 LIG      0.119100
      5 C4          1.4090   -0.2640   -2.1410 c3        1 LIG      0.110100
      6 C5          2.3590   -1.2280   -1.4280 c3        1 LIG      0.144400
      7 O          -1.9180    1.6090   -3.6920 oh        1 LIG     -0.581800
      8 O1         -1.3020    2.0090   -0.8890 oh        1 LIG     -0.605800
      9 O2         -0.2430   -0.5040   -0.3920 os        1 LIG     -0.386600
     10 O3          0.5770   -0.9960   -3.0430 os        1 LIG     -0.446600
     11 O4          3.1740   -1.8940   -2.3950 oh        1 LIG     -0.597800
     12 C6         -0.4570    0.0290    0.9150 c3        1 LIG      0.297900
     13 C7         -1.3020   -0.9520    1.7310 c3        1 LIG      0.088100
     14 C8         -1.5540   -0.3570    3.1210 c3        1 LIG      0.082100
     15 C9         -0.2050    0.0170    3.7450 c3        1 LIG      0.082100
     16 C10         0.5550    0.9260    2.7770 c3        1 LIG      0.071100
     17 C11         1.8880    1.3360    3.4060 c3        1 LIG      0.140400
     18 O5         -2.5490   -1.1730    1.0700 oh        1 LIG     -0.561800
     19 O6         -2.2140   -1.3230    3.9430 oh        1 LIG     -0.573800
     20 O7          0.5530   -1.1670    3.9910 oh        1 LIG     -0.591800
     21 O8          0.8000    0.2320    1.5560 os        1 LIG     -0.463600
     22 O9          2.5980    2.1870    2.5050 oh        1 LIG     -0.591800
     23 O10        -0.8730   -0.7350   -4.8460 oh        1 LIG     -0.575800
     24 H           0.5110    0.6580   -4.2450 h2        1 LIG      0.072700
     25 H1         -1.8240   -0.0220   -2.4590 h1        1 LIG      0.120700
     26 H2          0.1890    2.2260   -2.2700 h1        1 LIG      0.041700
     27 H3          1.1640    0.9840   -0.4160 h1        1 LIG      0.079700
     28 H4          1.9770    0.4580   -2.6890 h1        1 LIG      0.058700
     29 H5          1.7900   -1.9510   -0.8820 h1        1 LIG      0.065200
     30 H6          2.9820   -0.6810   -0.7520 h1        1 LIG      0.065200
     31 H7         -1.3190    2.2510   -4.1050 ho        1 LIG      0.406000
     32 H8         -1.8280    1.3030   -0.4820 ho        1 LIG      0.428000
     33 H9          2.6090   -2.3900   -3.0080 ho        1 LIG      0.415000
     34 H10        -0.9720    0.9640    0.8430 h2        1 LIG      0.079700
     35 H11        -0.7850   -1.8840    1.8260 h1        1 LIG      0.101700
     36 H12        -2.1720    0.5130    3.0410 h1        1 LIG      0.081700
     37 H13        -0.3630    0.5290    4.6710 h1        1 LIG      0.100700
     38 H14        -0.0310    1.7980    2.5760 h1        1 LIG      0.065700
     39 H15         2.4720    0.4620    3.6060 h1        1 LIG      0.063200
     40 H16         1.7040    1.8590    4.3210 h1        1 LIG      0.063200
     41 H17        -3.0220   -0.3310    0.9820 ho        1 LIG      0.403000
     42 H18        -1.6590   -2.1150    4.0200 ho        1 LIG      0.419000
     43 H19         0.7000   -1.6370    3.1550 ho        1 LIG      0.416000
     44 H20         2.7640    1.7130    1.6750 ho        1 LIG      0.411000
     45 H21        -1.4830   -1.3770   -4.4490 ho        1 LIG      0.428000
@<TRIPOS>BOND
     1    1    2 1   
     2    1   10 1   
     3    1   23 1   
     4    2    3 1   
     5    2    7 1   
     6    3    4 1   
     7    3    8 1   
     8    4    5 1   
     9    4    9 1   
    10    5    6 1   
    11    5   10 1   
    12    6   11 1   
    13    9   12 1   
    14   12   13 1   
    15   12   21 1   
    16   13   14 1   
    17   13   18 1   
    18   14   15 1   
    19   14   19 1   
    20   15   16 1   
    21   15   20 1   
    22   16   17 1   
    23   16   21 1   
    24   17   22 1   
    25    1   24 1   
    26    2   25 1   
    27    3   26 1   
    28    4   27 1   
    29    5   28 1   
    30    6   29 1   
    31    6   30 1   
    32    7   31 1   
    33    8   32 1   
    34   11   33 1   
    35   12   34 1   
    36   13   35 1   
    37   14   36 1   
    38   15   37 1   
    39   16   38 1   
    40   17   39 1   
    41   17   40 1   
    42   18   41 1   
    43   19   42 1   
    44   20   43 1   
    45   22   44 1   
    46   23   45 1   
@<TRIPOS>SUBSTRUCTURE
     1 LIG         1 TEMP              0 ****  ****    0 ROOT
