@<TRIPOS>MOLECULE
END
   48    51     1     0     0
SMALL
bcc


@<TRIPOS>ATOM
      1 O           6.0460    0.9540   -0.3910 oh        1 LIG     -0.595800
      2 C           4.7750    0.7690    0.2370 c3        1 LIG      0.148300
      3 C1          3.8700    1.8970   -0.1370 c2        1 LIG     -0.211200
      4 C2          2.6190    2.0000   -0.1220 c2        1 LIG     -0.147200
      5 C3          1.5390    1.0930    0.3380 c3        1 LIG      0.142300
      6 O1          0.2750    1.5350   -0.1670 os        1 LIG     -0.393600
      7 C4         -0.8420    0.7990    0.3290 c3        1 LIG      0.077100
      8 C5         -2.1410    1.3520   -0.2600 c3        1 LIG      0.149100
      9 O2         -2.3230    2.7030    0.1710 oh        1 LIG     -0.564800
     10 C6         -3.3190    0.4970    0.2250 c3        1 LIG      0.083100
     11 O3         -4.5190    1.0120   -0.3430 os        1 LIG     -0.395600
     12 C7         -5.7330    0.4700    0.1710 c3        1 LIG      0.159600
     13 C8         -6.0810   -0.7820   -0.6080 c2        1 LIG     -0.200200
     14 C9         -5.3620   -1.8540   -0.4540 c2        1 LIG     -0.153200
     15 C10        -4.1840   -1.8390    0.4910 c3        1 LIG     -0.051200
     16 C11        -3.0800   -0.9650   -0.1170 c3        1 LIG      0.120100
     17 O4         -1.8190   -1.4020    0.4000 os        1 LIG     -0.408600
     18 C12        -0.7010   -0.6680   -0.0960 c3        1 LIG      0.115100
     19 C13         0.6010   -1.2230    0.4870 c3        1 LIG     -0.080400
     20 C14         1.7690   -0.3660   -0.0150 c3        1 LIG      0.124100
     21 O5          2.9870   -0.8530    0.4660 os        1 LIG     -0.427600
     22 C15         4.1830   -0.5550   -0.2080 c3        1 LIG      0.109100
     23 C16         5.1970   -1.6690    0.0630 c3        1 LIG      0.140400
     24 O6          4.6990   -2.9030   -0.4580 oh        1 LIG     -0.597800
     25 H           6.4260    1.8000   -0.1080 ho        1 LIG      0.407000
     26 H1          4.8910    0.7560    1.3010 h1        1 LIG      0.055700
     27 H2          4.3610    2.7430   -0.4670 ha        1 LIG      0.138000
     28 H3          2.2730    2.8930   -0.5060 ha        1 LIG      0.154000
     29 H4          1.5440    1.1410    1.4070 h1        1 LIG      0.062700
     30 H5         -0.8690    0.8820    1.3950 h1        1 LIG      0.052700
     31 H6         -2.0920    1.3240   -1.3290 h1        1 LIG      0.111700
     32 H7         -2.3680    2.7300    1.1400 ho        1 LIG      0.393000
     33 H8         -3.4120    0.5450    1.2900 h1        1 LIG      0.047700
     34 H9         -6.5190    1.1880    0.0670 h1        1 LIG      0.057200
     35 H10        -5.6130    0.2300    1.2070 h1        1 LIG      0.057200
     36 H11        -6.8840   -0.7840   -1.2570 ha        1 LIG      0.129000
     37 H12        -5.5960   -2.7130   -0.9760 ha        1 LIG      0.127000
     38 H13        -3.8200   -2.8360    0.6290 hc        1 LIG      0.064200
     39 H14        -4.4820   -1.4440    1.4400 hc        1 LIG      0.064200
     40 H15        -3.0840   -1.0590   -1.1830 h1        1 LIG      0.064700
     41 H16        -0.6740   -0.7520   -1.1620 h1        1 LIG      0.059700
     42 H17         0.7350   -2.2360    0.1690 hc        1 LIG      0.071700
     43 H18         0.5620   -1.1960    1.5560 hc        1 LIG      0.071700
     44 H19         1.8180   -0.4290   -1.0820 h1        1 LIG      0.061700
     45 H20         3.9620   -0.4810   -1.2520 h1        1 LIG      0.069700
     46 H21         5.3500   -1.7630    1.1180 h1        1 LIG      0.064200
     47 H22         6.1250   -1.4300   -0.4120 h1        1 LIG      0.064200
     48 H23         3.8570   -3.1200   -0.0270 ho        1 LIG      0.408000
@<TRIPOS>BOND
     1    1    2 1   
     2    2    3 1   
     3    2   22 1   
     4    3    4 2   
     5    4    5 1   
     6    5    6 1   
     7    5   20 1   
     8    6    7 1   
     9    7    8 1   
    10    7   18 1   
    11    8   10 1   
    12    8    9 1   
    13   10   11 1   
    14   10   16 1   
    15   11   12 1   
    16   12   13 1   
    17   13   14 2   
    18   14   15 1   
    19   15   16 1   
    20   16   17 1   
    21   17   18 1   
    22   18   19 1   
    23   19   20 1   
    24   20   21 1   
    25   21   22 1   
    26   22   23 1   
    27   23   24 1   
    28    1   25 1   
    29    2   26 1   
    30    3   27 1   
    31    4   28 1   
    32    5   29 1   
    33    7   30 1   
    34    8   31 1   
    35    9   32 1   
    36   10   33 1   
    37   12   34 1   
    38   12   35 1   
    39   13   36 1   
    40   14   37 1   
    41   15   38 1   
    42   15   39 1   
    43   16   40 1   
    44   18   41 1   
    45   19   42 1   
    46   19   43 1   
    47   20   44 1   
    48   22   45 1   
    49   23   46 1   
    50   23   47 1   
    51   24   48 1   
@<TRIPOS>SUBSTRUCTURE
     1 LIG         1 TEMP              0 ****  ****    0 ROOT
