@<TRIPOS>MOLECULE
V3L
   55    58     1     0     0
SMALL
bcc


@<TRIPOS>ATOM
      1 N          -4.9290    4.2450   -0.0190 N.b       1 LIG     -0.800000
      2 C          -3.9020    4.0690   -0.8310 C.a       1 LIG      0.629900
      3 N1         -3.2570    2.9260   -0.9170 N.b       1 LIG     -0.688000
      4 C1         -3.6220    1.8850   -0.1750 C.a       1 LIG      0.418800
      5 C2         -4.7080    2.0200    0.7050 C.a       1 LIG     -0.191200
      6 C3         -5.3660    3.2610    0.7610 C.a       1 LIG      0.657200
      7 N2         -6.4430    3.4540    1.6080 N.h       1 LIG     -0.916500
      8 N3         -4.8670    0.8290    1.3300 N.c       1 LIG     -0.615100
      9 C4         -3.9680   -0.0090    0.9000 C.d       1 LIG      0.483700
     10 N4         -3.1760    0.5950   -0.0300 N.a       1 LIG     -0.272000
     11 P          -1.4780   -5.7700    0.0060 P.5       1 LIG      1.312900
     12 P1          5.9990   -0.0900    0.4810 P.5       1 LIG      1.321900
     13 C5          0.5970    2.2170    0.5280 C.3       1 LIG      0.278900
     14 C6         -2.0540   -0.0200   -0.7430 C.3       1 LIG      0.232800
     15 O          -2.6400   -6.6270   -0.7060 O.3       1 LIG     -0.928833
     16 O1          6.1890   -0.0470    2.0790 O.3       1 LIG     -0.933500
     17 C7          0.9150    3.6480    0.0550 C.3       1 LIG      0.097100
     18 O2          0.3210    3.8970   -1.2210 O.h       1 LIG     -0.595800
     19 C8         -0.7150    0.2890   -0.0260 C.3       1 LIG      0.093100
     20 O3         -0.1790    1.5390   -0.4630 O.2       1 LIG     -0.445600
     21 O4         -1.7430   -5.6920    1.4600 O.3       1 LIG     -0.928833
     22 O5          7.0740    0.6950   -0.1650 O.3       1 LIG     -0.933500
     23 C9          2.4600    3.6780   -0.0520 C.3       1 LIG      0.057100
     24 O6          2.8770    4.3860   -1.2210 O.h       1 LIG     -0.609800
     25 C10         0.1790   -0.8880   -0.4880 C.3       1 LIG      0.113100
     26 O7          1.0020   -0.4890   -1.5860 O.h       1 LIG     -0.601800
     27 O8         -0.0560   -6.4820   -0.2430 O.3       1 LIG     -0.928833
     28 O9          6.0700   -1.6170   -0.0270 O.3       1 LIG     -0.933500
     29 C11         2.8060    2.1710   -0.1640 C.3       1 LIG      0.070100
     30 O10         1.8500    1.5390    0.7140 O.2       1 LIG     -0.470600
     31 C12        -0.8220   -1.9720   -0.9300 C.3       1 LIG      0.087100
     32 O11        -2.1430   -1.4600   -0.6860 O.2       1 LIG     -0.384600
     33 C13         4.2350    1.9100    0.3160 C.3       1 LIG      0.234400
     34 O12         4.5690    0.5380    0.0940 O.2       1 LIG     -0.564200
     35 C14        -0.5980   -3.2500   -0.1190 C.3       1 LIG      0.220400
     36 O13        -1.4500   -4.2840   -0.6150 O.2       1 LIG     -0.561200
     37 H          -3.5940    4.8580   -1.4200 H         1 LIG      0.036100
     38 H1         -6.8950    4.3280    1.6380 H         1 LIG      0.387800
     39 H2         -6.7570    2.7170    2.1810 H         1 LIG      0.387800
     40 H3         -3.8700   -0.9860    1.2170 H         1 LIG      0.189800
     41 H4          0.0360    2.2350    1.4390 H         1 LIG      0.074700
     42 H5         -2.0910    0.3620   -1.7420 H         1 LIG      0.094700
     43 H6          0.5340    4.3950    0.7200 H         1 LIG      0.102700
     44 H7          0.6390    3.2400   -1.8600 H         1 LIG      0.410000
     45 H8         -0.8030    0.3730    1.0370 H         1 LIG      0.071700
     46 H9          2.9410    4.1720    0.7660 H         1 LIG      0.225700
     47 H10         2.4720    3.9830   -2.0050 H         1 LIG      0.382000
     48 H11         0.8410   -1.2290    0.2810 H         1 LIG      0.051700
     49 H12         0.4420   -0.1710   -2.3110 H         1 LIG      0.415000
     50 H13         2.7570    1.8040   -1.1680 H         1 LIG      0.061700
     51 H14        -0.6930   -2.2080   -1.9660 H         1 LIG      0.111700
     52 H15         4.3060    2.1300    1.3610 H         1 LIG     -0.003300
     53 H16         4.9130    2.5350   -0.2270 H         1 LIG     -0.003300
     54 H17        -0.8250   -3.0640    0.9100 H         1 LIG     -0.000800
     55 H18         0.4230   -3.5550   -0.2090 H         1 LIG     -0.000800
@<TRIPOS>BOND
     1    1    6 ar  
     2    1    2 ar  
     3    2    3 ar  
     4    4    3 ar  
     5    4   10 1   
     6    5    4 ar  
     7    5    8 1   
     8    6    5 ar  
     9    7    6 1   
    10    8    9 2   
    11    9   10 1   
    12   10   14 1   
    13   11   36 1   
    14   11   15 1   
    15   11   27 1   
    16   12   28 1   
    17   12   16 1   
    18   13   17 1   
    19   13   30 1   
    20   14   19 1   
    21   17   23 1   
    22   18   17 1   
    23   19   20 1   
    24   20   13 1   
    25   21   11 1   
    26   22   12 1   
    27   23   29 1   
    28   24   23 1   
    29   25   19 1   
    30   25   26 1   
    31   29   33 1   
    32   30   29 1   
    33   31   25 1   
    34   32   14 1   
    35   32   31 1   
    36   33   34 1   
    37   34   12 1   
    38   35   31 1   
    39   35   36 1   
    40    2   37 1   
    41    7   38 1   
    42    7   39 1   
    43    9   40 1   
    44   13   41 1   
    45   14   42 1   
    46   17   43 1   
    47   18   44 1   
    48   19   45 1   
    49   23   46 1   
    50   24   47 1   
    51   25   48 1   
    52   26   49 1   
    53   29   50 1   
    54   31   51 1   
    55   33   52 1   
    56   33   53 1   
    57   35   54 1   
    58   35   55 1   
@<TRIPOS>SUBSTRUCTURE
     1 LIG         1 TEMP              0 ****  ****    0 ROOT
