@<TRIPOS>MOLECULE
0P6
   20    21     1     0     0
SMALL
bcc


@<TRIPOS>ATOM
      1 C           2.1330    1.1710   -0.0070 ca        1 LIG     -0.262300
      2 C1          0.9570    1.8580   -0.0110 ca        1 LIG     -0.068000
      3 C2         -0.2470    1.1240   -0.0030 ca        1 LIG     -0.155300
      4 C3         -1.4930    1.7710   -0.0070 ca        1 LIG     -0.136000
      5 C4         -2.6390    1.0360    0.0000 ca        1 LIG     -0.102000
      6 C5         -2.5970   -0.3560    0.0130 ca        1 LIG     -0.221000
      7 C6         -1.3940   -1.0240    0.0180 ca        1 LIG      0.081800
      8 O          -1.3670   -2.3830    0.0300 oh        1 LIG     -0.469100
      9 C7         -0.1900   -0.2900    0.0090 ca        1 LIG      0.425600
     10 N           0.9940   -0.9110    0.0130 nb        1 LIG     -0.700000
     11 C8          2.1220   -0.2320    0.0050 ca        1 LIG      0.625200
     12 N1          3.3280   -0.9190    0.0030 nh        1 LIG     -0.921500
     13 H           3.0300    1.6810   -0.0130 ha        1 LIG      0.144000
     14 H1          0.9470    2.8900   -0.0200 ha        1 LIG      0.139000
     15 H2         -1.5400    2.8020   -0.0150 ha        1 LIG      0.133000
     16 H3         -3.5520    1.5170   -0.0040 ha        1 LIG      0.134000
     17 H4         -3.4780   -0.8930    0.0190 ha        1 LIG      0.135000
     18 H5         -2.1690   -2.8680    0.0360 ho        1 LIG      0.414000
     19 H6          4.1780   -0.4220   -0.0030 hn        1 LIG      0.401800
     20 H7          3.3340   -1.9030    0.0070 hn        1 LIG      0.401800
@<TRIPOS>BOND
     1    1   11 ar  
     2    2    1 ar  
     3    3    9 ar  
     4    3    2 ar  
     5    4    3 ar  
     6    5    6 ar  
     7    5    4 ar  
     8    6    7 ar  
     9    7    8 1   
    10    7    9 ar  
    11    9   10 ar  
    12   10   11 ar  
    13   11   12 1   
    14    1   13 1   
    15    2   14 1   
    16    4   15 1   
    17    5   16 1   
    18    6   17 1   
    19    8   18 1   
    20   12   19 1   
    21   12   20 1   
@<TRIPOS>SUBSTRUCTURE
     1 LIG         1 TEMP              0 ****  ****    0 ROOT
