@<TRIPOS>MOLECULE
5CM
   35    36     1     0     0
SMALL
bcc


@<TRIPOS>ATOM
      1 N          -0.3470   -0.4070    2.2860 n         1 LIG     -0.369000
      2 C           0.1140    0.8560    2.2770 c         1 LIG      0.821900
      3 N1          0.8260    1.3350    3.2960 nc        1 LIG     -0.769100
      4 C1          1.0940    0.5760    4.3510 cd        1 LIG      0.711500
      5 C2          0.6290   -0.7540    4.3880 cd        1 LIG     -0.386800
      6 C3          0.9270   -1.6350    5.5740 c3        1 LIG     -0.056900
      7 C4         -0.0930   -1.2260    3.3450 cc        1 LIG      0.080600
      8 O          -0.1240    1.5750    1.3210 o         1 LIG     -0.698500
      9 N2          1.8310    1.0810    5.3970 nh        1 LIG     -0.898800
     10 C5         -1.1280   -0.9050    1.1510 c3        1 LIG      0.292500
     11 C6         -2.3940   -0.0460    0.9690 c3        1 LIG     -0.119400
     12 C7         -2.2740    0.5040   -0.4720 c3        1 LIG      0.109100
     13 C8         -1.2880   -0.4980   -1.1220 c3        1 LIG      0.062100
     14 O1         -0.3580   -0.7980   -0.0570 os        1 LIG     -0.440600
     15 O2         -3.5400    0.4780   -1.1350 oh        1 LIG     -0.654800
     16 C9         -0.5660    0.1460   -2.3070 c3        1 LIG      0.222400
     17 O3          0.3360   -0.7970   -2.8870 os        1 LIG     -0.569200
     18 P           1.0570   -0.0550   -4.1200 p5        1 LIG      1.341900
     19 O4          1.7870    1.1310   -3.6230 o         1 LIG     -0.927167
     20 O5          2.0930   -1.0670   -4.8240 o         1 LIG     -0.927167
     21 O6         -0.0520    0.4060   -5.1910 o         1 LIG     -0.927167
     22 H           1.5050   -1.0870    6.2890 hc        1 LIG      0.055033
     23 H1          1.4790   -2.4930    5.2510 hc        1 LIG      0.055033
     24 H2          0.0090   -1.9500    6.0240 hc        1 LIG      0.055033
     25 H3         -0.4470   -2.1950    3.3520 h4        1 LIG      0.296000
     26 H4          2.1540    2.0100    5.3680 hn        1 LIG      0.393300
     27 H5          2.0350    0.5130    6.1750 hn        1 LIG      0.393300
     28 H6         -1.3880   -1.9250    1.3440 h2        1 LIG      0.091700
     29 H7         -2.4160    0.7530    1.6800 hc        1 LIG      0.049700
     30 H8         -3.2940   -0.6040    1.1210 hc        1 LIG      0.049700
     31 H9         -1.9480    1.5220   -0.5200 h1        1 LIG      0.144700
     32 H10        -1.7730   -1.3700   -1.5090 h1        1 LIG      0.044700
     33 H11        -3.8920   -0.4260   -1.1250 ho        1 LIG      0.478000
     34 H12        -0.0190    1.0010   -1.9690 h1        1 LIG     -0.002300
     35 H13        -1.2850    0.4480   -3.0400 h1        1 LIG     -0.002300
@<TRIPOS>BOND
     1    1    2 1   
     2    1    7 1   
     3    1   10 1   
     4    2    3 1   
     5    2    8 2   
     6    3    4 2   
     7    4    5 1   
     8    4    9 1   
     9    5    6 1   
    10    5    7 2   
    11   10   11 1   
    12   10   14 1   
    13   11   12 1   
    14   12   13 1   
    15   12   15 1   
    16   13   14 1   
    17   13   16 1   
    18   16   17 1   
    19   17   18 1   
    20   18   19 1   
    21   18   20 1   
    22   18   21 1   
    23    6   22 1   
    24    6   23 1   
    25    6   24 1   
    26    7   25 1   
    27    9   26 1   
    28    9   27 1   
    29   10   28 1   
    30   11   29 1   
    31   11   30 1   
    32   12   31 1   
    33   13   32 1   
    34   15   33 1   
    35   16   34 1   
    36   16   35 1   
@<TRIPOS>SUBSTRUCTURE
     1 LIG         1 TEMP              0 ****  ****    0 ROOT
