@<TRIPOS>MOLECULE
LOV
   41    40     1     0     0
SMALL
bcc


@<TRIPOS>ATOM
      1 C           5.3470    0.4490   -0.6860 c3        1 LIG     -0.093100
      2 C1          4.1990    0.6790    1.5210 c3        1 LIG     -0.093100
      3 C2          4.1850   -0.0480    0.1750 c3        1 LIG     -0.066700
      4 C3          2.8620    0.2330   -0.5420 c3        1 LIG     -0.113400
      5 C4          1.7090   -0.3740    0.2590 c3        1 LIG      0.168500
      6 C5          0.3780    0.0130   -0.3900 c3        1 LIG      0.137100
      7 N           1.8400   -1.8370    0.2740 n4        1 LIG     -1.113600
      8 O           0.3400   -0.4830   -1.7300 oh        1 LIG     -0.599800
      9 C6         -0.7750   -0.5950    0.4110 c3        1 LIG     -0.117400
     10 C7         -2.1070   -0.1070   -0.1630 c3        1 LIG     -0.156700
     11 C8         -3.2600   -0.8090    0.5560 c3        1 LIG     -0.062700
     12 C9         -4.5920   -0.3220   -0.0180 c3        1 LIG     -0.098600
     13 C10        -3.1410   -2.3220    0.3550 c3        1 LIG     -0.098600
     14 C11        -2.2240    1.3820    0.0360 c         1 LIG      0.879600
     15 O1         -1.3340    1.9910    0.5800 o         1 LIG     -0.564800
     16 O2         -3.3180    2.0330   -0.3930 o         1 LIG     -0.564800
     17 H           6.2720    0.2530   -0.1850 hc        1 LIG      0.036200
     18 H1          5.2460    1.5020   -0.8480 hc        1 LIG      0.036200
     19 H2          5.3360   -0.0600   -1.6270 hc        1 LIG      0.036200
     20 H3          5.1240    0.4830    2.0230 hc        1 LIG      0.036200
     21 H4          3.3860    0.3310    2.1230 hc        1 LIG      0.036200
     22 H5          4.0970    1.7320    1.3590 hc        1 LIG      0.036200
     23 H6          4.2870   -1.1010    0.3370 hc        1 LIG      0.036700
     24 H7          2.8860   -0.2030   -1.5190 hc        1 LIG      0.053700
     25 H8          2.7200    1.2900   -0.6270 hc        1 LIG      0.053700
     26 H9          1.7380   -0.0030    1.2620 hx        1 LIG      0.069700
     27 H10         0.2820    1.0790   -0.4010 h1        1 LIG      0.046700
     28 H11         1.8130   -2.1910   -0.6820 hn        1 LIG      0.382467
     29 H12         1.0710   -2.2420    0.8080 hn        1 LIG      0.382467
     30 H13         2.7270   -2.0950    0.7070 hn        1 LIG      0.382467
     31 H14         0.4270   -1.4490   -1.7200 ho        1 LIG      0.402000
     32 H15        -0.6960   -0.2940    1.4350 hc        1 LIG      0.067700
     33 H16        -0.7290   -1.6620    0.3490 hc        1 LIG      0.067700
     34 H17        -2.1490   -0.3320   -1.2080 hc        1 LIG      0.088700
     35 H18        -3.2180   -0.5830    1.6010 hc        1 LIG      0.046700
     36 H19        -4.6340   -0.5480   -1.0630 hc        1 LIG      0.043533
     37 H20        -4.6750    0.7360    0.1220 hc        1 LIG      0.043533
     38 H21        -5.3980   -0.8130    0.4860 hc        1 LIG      0.043533
     39 H22        -3.1830   -2.5470   -0.6900 hc        1 LIG      0.043533
     40 H23        -3.9470   -2.8130    0.8580 hc        1 LIG      0.043533
     41 H24        -2.2100   -2.6630    0.7560 hc        1 LIG      0.043533
@<TRIPOS>BOND
     1    1    3 1   
     2    2    3 1   
     3    3    4 1   
     4    4    5 1   
     5    5    6 1   
     6    5    7 1   
     7    6    8 1   
     8    6    9 1   
     9    9   10 1   
    10   10   11 1   
    11   10   14 1   
    12   11   12 1   
    13   11   13 1   
    14   14   15 1   
    15   14   16 1   
    16    1   17 1   
    17    1   18 1   
    18    1   19 1   
    19    2   20 1   
    20    2   21 1   
    21    2   22 1   
    22    3   23 1   
    23    4   24 1   
    24    4   25 1   
    25    5   26 1   
    26    6   27 1   
    27    7   28 1   
    28    7   29 1   
    29    7   30 1   
    30    8   31 1   
    31    9   32 1   
    32    9   33 1   
    33   10   34 1   
    34   11   35 1   
    35   12   36 1   
    36   12   37 1   
    37   12   38 1   
    38   13   39 1   
    39   13   40 1   
    40   13   41 1   
@<TRIPOS>SUBSTRUCTURE
     1 LIG         1 TEMP              0 ****  ****    0 ROOT
