@<TRIPOS>MOLECULE
V50
   32    33     1     0     0
SMALL
bcc


@<TRIPOS>ATOM
      1 F           2.2380   -0.0570   -2.3720 f         1 LIG     -0.100400
      2 C           1.6160   -0.3710   -1.2150 ca        1 LIG      0.189900
      3 C1          2.2510   -0.1460   -0.0050 ca        1 LIG     -0.347500
      4 S           3.8700    0.5490    0.0230 sy        1 LIG      1.522200
      5 O           4.4530    0.2570   -1.2400 o         1 LIG     -0.633300
      6 N           3.6960    2.1940    0.0880 n3        1 LIG     -1.027700
      7 O1          4.4530    0.1570    1.2580 o         1 LIG     -0.633300
      8 C2          1.6150   -0.4660    1.1830 ca        1 LIG      0.189900
      9 F1          2.2380   -0.2450    2.3620 f         1 LIG     -0.100400
     10 C3          0.3430   -1.0120    1.1640 ca        1 LIG      0.128900
     11 F2         -0.2740   -1.3290    2.3230 f         1 LIG     -0.099400
     12 C4          0.3410   -0.9110   -1.2400 ca        1 LIG      0.128900
     13 F3         -0.2780   -1.1310   -2.4210 f         1 LIG     -0.099400
     14 C5         -0.2960   -1.2390   -0.0490 ca        1 LIG     -0.035100
     15 S1         -1.9150   -1.9340   -0.0770 ss        1 LIG     -0.071200
     16 C6         -2.8820   -0.4620   -0.0190 ca        1 LIG      0.713300
     17 N1         -2.2690    0.7130    0.0230 nb        1 LIG     -0.703000
     18 C7         -2.9640    1.8370    0.0670 ca        1 LIG      0.466600
     19 C8         -2.2600    3.1680    0.1130 c3        1 LIG     -0.156900
     20 C9         -4.3490    1.7760    0.0700 ca        1 LIG     -0.374600
     21 C10        -4.9580    0.5310    0.0260 ca        1 LIG      0.466600
     22 N2         -4.2040   -0.5550   -0.0230 nb        1 LIG     -0.703000
     23 C11        -6.4600    0.4160    0.0280 c3        1 LIG     -0.156900
     24 H           3.2790    2.5260   -0.7810 hn        1 LIG      0.457300
     25 H1          4.6110    2.6280    0.2140 hn        1 LIG      0.457300
     26 H2         -1.2020    3.0120    0.1030 hc        1 LIG      0.061200
     27 H3         -2.5360    3.6870    1.0070 hc        1 LIG      0.061200
     28 H4         -2.5420    3.7510   -0.7390 hc        1 LIG      0.061200
     29 H5         -4.9150    2.6390    0.1040 ha        1 LIG      0.155000
     30 H6         -6.8930    1.3940    0.0710 hc        1 LIG      0.061200
     31 H7         -6.7730   -0.1500    0.8800 hc        1 LIG      0.061200
     32 H8         -6.7810   -0.0770   -0.8660 hc        1 LIG      0.061200
@<TRIPOS>BOND
     1    2    3 ar  
     2    2    1 1   
     3    3    4 1   
     4    4    5 2   
     5    6    4 1   
     6    7    4 2   
     7    8    9 1   
     8    8    3 ar  
     9   10   14 ar  
    10   10    8 ar  
    11   11   10 1   
    12   12    2 ar  
    13   13   12 1   
    14   14   12 ar  
    15   15   16 1   
    16   15   14 1   
    17   16   22 ar  
    18   17   16 ar  
    19   18   17 ar  
    20   18   20 ar  
    21   19   18 1   
    22   20   21 ar  
    23   21   22 ar  
    24   21   23 1   
    25    6   24 1   
    26    6   25 1   
    27   19   26 1   
    28   19   27 1   
    29   19   28 1   
    30   20   29 1   
    31   23   30 1   
    32   23   31 1   
    33   23   32 1   
@<TRIPOS>SUBSTRUCTURE
     1 LIG         1 TEMP              0 ****  ****    0 ROOT
