@<TRIPOS>MOLECULE
9YK
   56    57     1     0     0
SMALL
bcc


@<TRIPOS>ATOM
      1 O          -7.0010    0.6250   -0.5010 O.h       1 LIG     -0.491100
      2 C          -5.8760    1.1350    0.0680 C.a       1 LIG      0.101100
      3 C1         -4.7920    0.3040    0.3370 C.a       1 LIG      0.112100
      4 O1         -4.8560   -1.0190    0.0320 O.h       1 LIG     -0.526100
      5 C2         -5.8040    2.4840    0.3750 C.a       1 LIG     -0.112000
      6 C3         -4.6590    3.0010    0.9530 C.a       1 LIG     -0.132000
      7 C4         -3.5850    2.1750    1.2250 C.a       1 LIG     -0.123000
      8 C5         -3.6490    0.8290    0.9170 C.a       1 LIG     -0.212300
      9 C6         -2.4760   -0.0690    1.2150 C.3       1 LIG      0.161100
     10 N          -1.6010   -0.1400    0.0370 N.4       1 LIG     -0.650400
     11 C7         -2.2040   -0.9680   -1.0160 C.3       1 LIG     -0.079200
     12 C8         -2.3640   -2.3800   -0.5160 C.        1 LIG      0.927600
     13 O2         -2.8140   -3.3380   -1.3420 O.3       1 LIG     -0.778300
     14 O3         -2.0880   -2.6510    0.6290 O.3       1 LIG     -0.778300
     15 C9         -0.2680   -0.6400    0.4010 C.3       1 LIG      0.071800
     16 C10         0.7180   -0.3300   -0.7270 C.3       1 LIG      0.086800
     17 N1          2.0320   -0.8990   -0.4000 N.4       1 LIG     -0.661400
     18 C11         1.9780   -2.3670   -0.3770 C.3       1 LIG     -0.077200
     19 C12         3.2010   -2.9030    0.3220 C.        1 LIG      0.918600
     20 O4          3.4230   -4.2260    0.3650 O.3       1 LIG     -0.774300
     21 O5          3.9810   -2.1420    0.8440 O.3       1 LIG     -0.774300
     22 C13         3.0590   -0.4250   -1.3360 C.3       1 LIG      0.166100
     23 C14         3.2190    1.0670   -1.1930 C.a       1 LIG     -0.157300
     24 C15         2.6390    1.9160   -2.1150 C.a       1 LIG     -0.082000
     25 C16         2.7840    3.2850   -1.9850 C.a       1 LIG     -0.139000
     26 C17         3.5110    3.8090   -0.9310 C.a       1 LIG     -0.086000
     27 C18         4.0950    2.9660   -0.0060 C.a       1 LIG     -0.146000
     28 C19         3.9450    1.5900   -0.1300 C.a       1 LIG      0.007900
     29 S           4.6810    0.5110    1.0520 S.3       1 LIG     -0.173000
     30 C20         5.4920    1.6570    2.2010 C.3       1 LIG     -0.062000
     31 H          -7.0490   -0.2870   -0.7080 H         1 LIG      0.447000
     32 H1         -5.6300   -1.3720   -0.3600 H         1 LIG      0.487000
     33 H2         -6.6050    3.1030    0.1720 H         1 LIG      0.161000
     34 H3         -4.6060    4.0060    1.1820 H         1 LIG      0.145000
     35 H4         -2.7330    2.5640    1.6590 H         1 LIG      0.136000
     36 H5         -2.8300   -1.0500    1.4560 H         1 LIG      0.125700
     37 H6         -1.9260    0.3260    2.0440 H         1 LIG      0.125700
     38 H7         -1.4920    0.8050   -0.3310 H         1 LIG      0.421800
     39 H8         -1.5710   -0.9650   -1.8790 H         1 LIG      0.086200
     40 H9         -3.1630   -0.5710   -1.2760 H         1 LIG      0.086200
     41 H10        -0.3140   -1.6980    0.5540 H         1 LIG      0.143700
     42 H11         0.0580   -0.1630    1.3010 H         1 LIG      0.143700
     43 H12         0.8070    0.7300   -0.8410 H         1 LIG      0.119200
     44 H13         0.3610   -0.7590   -1.6400 H         1 LIG      0.119200
     45 H14         2.2880   -0.5790    0.5340 H         1 LIG      0.480800
     46 H15         1.9490   -2.7390   -1.3800 H         1 LIG      0.092700
     47 H16         1.1000   -2.6840    0.1460 H         1 LIG      0.092700
     48 H17         2.7630   -0.6580   -2.3380 H         1 LIG      0.106700
     49 H18         3.9900   -0.9060   -1.1180 H         1 LIG      0.106700
     50 H19         2.0960    1.5280   -2.9020 H         1 LIG      0.158000
     51 H20         2.3490    3.9170   -2.6750 H         1 LIG      0.151000
     52 H21         3.6170    4.8310   -0.8360 H         1 LIG      0.144000
     53 H22         4.6420    3.3570    0.7760 H         1 LIG      0.142000
     54 H23         5.9800    1.1010    2.9740 H         1 LIG      0.080033
     55 H24         4.7590    2.3050    2.6350 H         1 LIG      0.080033
     56 H25         6.2150    2.2410    1.6710 H         1 LIG      0.080033
@<TRIPOS>BOND
     1    2    1 1   
     2    3    2 ar  
     3    3    4 1   
     4    5    2 ar  
     5    6    5 ar  
     6    7    6 ar  
     7    7    8 ar  
     8    8    3 ar  
     9    9    8 1   
    10    9   10 1   
    11   10   11 1   
    12   11   12 1   
    13   12   14 1   
    14   12   13 1   
    15   15   10 1   
    16   15   16 1   
    17   16   17 1   
    18   17   22 1   
    19   18   17 1   
    20   19   20 1   
    21   19   18 1   
    22   21   19 1   
    23   22   23 1   
    24   23   28 ar  
    25   24   25 ar  
    26   24   23 ar  
    27   25   26 ar  
    28   26   27 ar  
    29   28   27 ar  
    30   28   29 1   
    31   30   29 1   
    32    1   31 1   
    33    4   32 1   
    34    5   33 1   
    35    6   34 1   
    36    7   35 1   
    37    9   36 1   
    38    9   37 1   
    39   10   38 1   
    40   11   39 1   
    41   11   40 1   
    42   15   41 1   
    43   15   42 1   
    44   16   43 1   
    45   16   44 1   
    46   17   45 1   
    47   18   46 1   
    48   18   47 1   
    49   22   48 1   
    50   22   49 1   
    51   24   50 1   
    52   25   51 1   
    53   26   52 1   
    54   27   53 1   
    55   30   54 1   
    56   30   55 1   
    57   30   56 1   
@<TRIPOS>SUBSTRUCTURE
     1 LIG         1 TEMP              0 ****  ****    0 ROOT
