@<TRIPOS>MOLECULE
NKO
   64    63     1     0     0
SMALL
bcc


@<TRIPOS>ATOM
      1 O          11.4310    0.8600   -0.5300 o         1 LIG     -0.921167
      2 O1         10.4670   -1.5000   -1.1720 o         1 LIG     -0.921167
      3 P          10.3450   -0.2650   -0.1470 p5        1 LIG      1.319900
      4 O2         10.5940   -0.7420    1.2320 o         1 LIG     -0.921167
      5 O3          2.7530   -1.1680    0.5290 o         1 LIG     -0.587000
      6 O4          8.8660    0.3640   -0.2390 os        1 LIG     -0.559200
      7 C           7.6900   -0.3540    0.1430 c3        1 LIG      0.209400
      8 C1          6.4610    0.5320   -0.0690 c3        1 LIG      0.120100
      9 C2          5.1940   -0.2750    0.2200 c3        1 LIG      0.122400
     10 O5          4.0260    0.5280   -0.0940 os        1 LIG     -0.418900
     11 C3          2.8250   -0.0390    0.1050 c         1 LIG      0.624100
     12 C4          1.5680    0.7340   -0.1980 c3        1 LIG     -0.136400
     13 C5          0.3470   -0.1350    0.1140 c3        1 LIG     -0.077400
     14 C6         -0.9290    0.6500   -0.1940 c3        1 LIG     -0.078400
     15 C7         -2.1490   -0.2190    0.1190 c3        1 LIG     -0.078400
     16 C8         -3.4260    0.5660   -0.1900 c3        1 LIG     -0.079400
     17 C9         -4.6470   -0.3030    0.1230 c3        1 LIG     -0.079400
     18 C10        -5.9240    0.4810   -0.1860 c3        1 LIG     -0.078400
     19 C11        -7.1440   -0.3870    0.1270 c3        1 LIG     -0.079400
     20 C12        -8.4200    0.3970   -0.1820 c3        1 LIG     -0.079400
     21 C13        -9.6410   -0.4710    0.1310 c3        1 LIG     -0.079400
     22 C14       -10.9180    0.3130   -0.1770 c3        1 LIG     -0.078400
     23 C15       -12.1380   -0.5550    0.1350 c3        1 LIG     -0.079400
     24 C16       -13.4150    0.2290   -0.1730 c3        1 LIG     -0.079400
     25 C17       -14.6350   -0.6400    0.1390 c3        1 LIG     -0.080400
     26 C18       -15.9120    0.1450   -0.1690 c3        1 LIG     -0.092100
     27 O6          6.5230    1.6530    0.8160 oh        1 LIG     -0.688800
     28 H           7.7590   -0.6280    1.1750 h1        1 LIG     -0.005300
     29 H1          7.6010   -1.2370   -0.4550 h1        1 LIG     -0.005300
     30 H2          6.4410    0.8770   -1.0820 h1        1 LIG      0.021700
     31 H3          5.1720   -0.5460    1.2550 h1        1 LIG      0.046700
     32 H4          5.1900   -1.1600   -0.3810 h1        1 LIG      0.046700
     33 H5          1.5570    1.0060   -1.2330 hc        1 LIG      0.069200
     34 H6          1.5390    1.6190    0.4040 hc        1 LIG      0.069200
     35 H7          0.3580   -0.4070    1.1490 hc        1 LIG      0.053200
     36 H8          0.3760   -1.0200   -0.4870 hc        1 LIG      0.053200
     37 H9         -0.9400    0.9210   -1.2290 hc        1 LIG      0.036700
     38 H10        -0.9580    1.5350    0.4060 hc        1 LIG      0.036700
     39 H11        -2.1380   -0.4900    1.1540 hc        1 LIG      0.040200
     40 H12        -2.1200   -1.1050   -0.4810 hc        1 LIG      0.040200
     41 H13        -3.4370    0.8370   -1.2250 hc        1 LIG      0.037700
     42 H14        -3.4550    1.4510    0.4100 hc        1 LIG      0.037700
     43 H15        -4.6360   -0.5740    1.1580 hc        1 LIG      0.039200
     44 H16        -4.6180   -1.1880   -0.4770 hc        1 LIG      0.039200
     45 H17        -5.9350    0.7510   -1.2210 hc        1 LIG      0.038200
     46 H18        -5.9530    1.3660    0.4140 hc        1 LIG      0.038200
     47 H19        -7.1330   -0.6570    1.1620 hc        1 LIG      0.039200
     48 H20        -7.1150   -1.2720   -0.4730 hc        1 LIG      0.039200
     49 H21        -8.4310    0.6670   -1.2170 hc        1 LIG      0.038700
     50 H22        -8.4490    1.2820    0.4180 hc        1 LIG      0.038700
     51 H23        -9.6300   -0.7420    1.1660 hc        1 LIG      0.039200
     52 H24        -9.6130   -1.3560   -0.4700 hc        1 LIG      0.039200
     53 H25       -10.9290    0.5840   -1.2120 hc        1 LIG      0.038700
     54 H26       -10.9470    1.1980    0.4240 hc        1 LIG      0.038700
     55 H27       -12.1270   -0.8260    1.1700 hc        1 LIG      0.038700
     56 H28       -12.1090   -1.4400   -0.4660 hc        1 LIG      0.038700
     57 H29       -13.4260    0.5010   -1.2080 hc        1 LIG      0.038700
     58 H30       -13.4440    1.1140    0.4280 hc        1 LIG      0.038700
     59 H31       -14.6240   -0.9120    1.1740 hc        1 LIG      0.037700
     60 H32       -14.6060   -1.5250   -0.4620 hc        1 LIG      0.037700
     61 H33       -15.9410    1.0300    0.4320 hc        1 LIG      0.030700
     62 H34       -16.7650   -0.4620    0.0490 hc        1 LIG      0.030700
     63 H35       -15.9230    0.4170   -1.2040 hc        1 LIG      0.030700
     64 H36         6.5410    1.3400    1.7340 ho        1 LIG      0.507000
@<TRIPOS>BOND
     1    1    3 1   
     2    2    3 1   
     3    3    4 1   
     4    3    6 1   
     5    5   11 2   
     6    6    7 1   
     7    7    8 1   
     8    8    9 1   
     9    8   27 1   
    10    9   10 1   
    11   10   11 1   
    12   11   12 1   
    13   12   13 1   
    14   13   14 1   
    15   14   15 1   
    16   15   16 1   
    17   16   17 1   
    18   17   18 1   
    19   18   19 1   
    20   19   20 1   
    21   20   21 1   
    22   21   22 1   
    23   22   23 1   
    24   23   24 1   
    25   24   25 1   
    26   25   26 1   
    27    7   28 1   
    28    7   29 1   
    29    8   30 1   
    30    9   31 1   
    31    9   32 1   
    32   12   33 1   
    33   12   34 1   
    34   13   35 1   
    35   13   36 1   
    36   14   37 1   
    37   14   38 1   
    38   15   39 1   
    39   15   40 1   
    40   16   41 1   
    41   16   42 1   
    42   17   43 1   
    43   17   44 1   
    44   18   45 1   
    45   18   46 1   
    46   19   47 1   
    47   19   48 1   
    48   20   49 1   
    49   20   50 1   
    50   21   51 1   
    51   21   52 1   
    52   22   53 1   
    53   22   54 1   
    54   23   55 1   
    55   23   56 1   
    56   24   57 1   
    57   24   58 1   
    58   25   59 1   
    59   25   60 1   
    60   26   61 1   
    61   26   62 1   
    62   26   63 1   
    63   27   64 1   
@<TRIPOS>SUBSTRUCTURE
     1 LIG         1 TEMP              0 ****  ****    0 ROOT
