@<TRIPOS>MOLECULE
ORD
   22    21     1     0     0
SMALL
bcc


@<TRIPOS>ATOM
      1 N          -0.7580    1.7740    0.2740 n4        1 LIG     -0.824600
      2 CA         -0.7820    0.3210    0.4880 c3        1 LIG     -0.042500
      3 C           0.3680   -0.3270   -0.2860 c3        1 LIG     -0.092400
      4 C1          1.7030    0.1460    0.2940 c3        1 LIG     -0.105400
      5 C2          2.8530   -0.5020   -0.4790 c3        1 LIG      0.113800
      6 N1          4.1350   -0.0490    0.0780 n4        1 LIG     -0.863600
      7 O          -2.7620    0.3920   -0.7870 o         1 LIG     -0.779300
      8 OXT        -2.5180   -1.4340    0.4350 o         1 LIG     -0.779300
      9 C3         -2.0930   -0.2370   -0.0020 c         1 LIG      0.896600
     10 H1          0.1300    2.1520    0.6060 hn        1 LIG      0.460467
     11 H2         -1.5250    2.2060    0.7890 hn        1 LIG      0.460467
     12 H3         -0.8620    1.9730   -0.7210 hn        1 LIG      0.460467
     13 HA         -0.6730    0.1120    1.5320 hx        1 LIG      0.121700
     14 H           0.3070   -0.0460   -1.3170 hc        1 LIG      0.065700
     15 H4          0.2990   -1.3910   -0.2020 hc        1 LIG      0.065700
     16 H5          1.7630   -0.1350    1.3250 hc        1 LIG      0.102700
     17 H6          1.7720    1.2100    0.2090 hc        1 LIG      0.102700
     18 H7          2.7930   -0.2210   -1.5100 hx        1 LIG      0.100200
     19 H8          2.7840   -1.5660   -0.3950 hx        1 LIG      0.100200
     20 H9          4.2010    0.9660   -0.0020 hn        1 LIG      0.478467
     21 H10         4.9020   -0.4810   -0.4380 hn        1 LIG      0.478467
     22 H11         4.1920   -0.3170    1.0610 hn        1 LIG      0.478467
@<TRIPOS>BOND
     1    1    2 1   
     2    2    3 1   
     3    2    9 1   
     4    3    4 1   
     5    4    5 1   
     6    5    6 1   
     7    9    7 1   
     8    9    8 1   
     9    1   10 1   
    10    1   11 1   
    11    1   12 1   
    12    2   13 1   
    13    3   14 1   
    14    3   15 1   
    15    4   16 1   
    16    4   17 1   
    17    5   18 1   
    18    5   19 1   
    19    6   20 1   
    20    6   21 1   
    21    6   22 1   
@<TRIPOS>SUBSTRUCTURE
     1 LIG         1 TEMP              0 ****  ****    0 ROOT
